AeroDyn airfoil file.  Compatible with AeroDyn v13.0.
Interpolated thickness: 0.638

  1        Number of airfoil tables in this file
  9990     Reynolds number in millions.  For efficiency, make very large if only one table.
  0        Control setting
  10.7232  Stall angle (deg)
  -3.30835 Zero lift angle of attack (deg)
  3.31391  Cn slope for zero lift (dimensionless)
  0.811568 Cn at stall value for positive angle of attack
  -0.8     Cn at stall value for negative angle of attack
  -2.12    Angle of attack for minimum CD (deg)
  0.188291 Minimum CD value
  -180.00  0.00005  0.23611  -0.00005
  -170.00  0.18772  0.25569  0.19047
  -160.00  0.37587  0.31185  -0.06826
  -150.00  0.33776  0.39768  -0.03006
  -140.00  0.31347  0.50242  -0.00343
  -130.00  0.28060  0.61307  0.02233
  -120.00  0.23011  0.71557  0.04791
  -110.00  0.16295  0.79693  0.07163
  -100.00  0.08341  0.84661  0.09107
   -90.00  0.00005  0.85775  0.10383
   -80.00  -0.08330  0.84661  0.11326
   -70.00  -0.16285  0.79693  0.11498
   -60.00  -0.23001  0.71557  0.11055
   -50.00  -0.28050  0.61307  0.10283
   -40.00  -0.31336  0.50242  0.09654
   -30.00  -0.33766  0.39768  0.10031
   -20.00  -0.37481  0.31175  0.13689
   -10.00  -0.15332  0.23378  0.06049
    -4.17  -0.03424  0.18839  -0.06416
    -3.17  0.02006  0.18834  -0.06512
    -2.12  0.07626  0.18829  -0.06588
    -1.08  0.13294  0.18829  -0.06674
    -0.05  0.18915  0.18834  -0.06721
    -0.02  0.18928  0.18834  -0.06721
     1.16  0.25568  0.18844  -0.06783
     2.32  0.31821  0.18853  -0.06835
     3.47  0.38095  0.18869  -0.06871
     4.63  0.44172  0.18882  -0.06862
     5.79  0.50054  0.18900  -0.06819
     6.95  0.55632  0.18930  -0.06717
     8.10  0.60212  0.18962  -0.06435
    10.72  0.62293  0.19566  -0.05003
    13.34  0.54521  0.23782  -0.04621
    15.96  0.52648  0.26392  -0.05026
    18.58  0.53850  0.28991  -0.05656
    21.20  0.53551  0.32255  -0.06682
    23.82  0.51952  0.34503  -0.07986
    26.43  0.50353  0.36752  -0.09289
    29.05  0.48753  0.39001  -0.10592
    31.67  0.47618  0.41571  -0.11552
    34.29  0.46723  0.44306  -0.12333
    36.91  0.45827  0.47041  -0.13114
    39.53  0.44932  0.49776  -0.13895
    42.14  0.43757  0.52639  -0.14565
    44.76  0.42526  0.55528  -0.15211
    47.38  0.41295  0.58418  -0.15858
    50.00  0.40063  0.61307  -0.16505
    60.00  0.32871  0.71557  -0.18710
    70.00  0.23249  0.79693  -0.20630
    80.00  0.11913  0.84661  -0.22206
    90.00  0.00005  0.85775  -0.23340
   100.00  -0.08330  0.84661  -0.24278
   110.00  -0.16285  0.79693  -0.24455
   120.00  -0.23001  0.71557  -0.24007
   130.00  -0.28050  0.61307  -0.23240
   140.00  -0.31336  0.50242  -0.22606
   150.00  -0.33766  0.39768  -0.22983
   160.00  -0.37576  0.31185  -0.26679
   170.00  -0.18762  0.25569  -0.23821
   180.00  0.00005  0.23611  -0.00005
EOT
