AeroDyn airfoil file.  Compatible with AeroDyn v13.0.
Interpolated thickness: 0.605

  1        Number of airfoil tables in this file
  9990     Reynolds number in millions.  For efficiency, make very large if only one table.
  0        Control setting
  10.7322  Stall angle (deg)
  -3.34442 Zero lift angle of attack (deg)
  3.5783   Cn slope for zero lift (dimensionless)
  0.879128 Cn at stall value for positive angle of attack
  -0.8     Cn at stall value for negative angle of attack
  -2.12    Angle of attack for minimum CD (deg)
  0.173549 Minimum CD value
  -180.00  0.00005  0.22573  -0.00005
  -170.00  0.20482  0.24709  0.20785
  -160.00  0.41012  0.30837  -0.07447
  -150.00  0.36854  0.40203  -0.03279
  -140.00  0.34203  0.51632  -0.00374
  -130.00  0.30617  0.63705  0.02438
  -120.00  0.25108  0.74890  0.05229
  -110.00  0.17780  0.83767  0.07817
  -100.00  0.09100  0.89188  0.09938
   -90.00  0.00005  0.90404  0.11331
   -80.00  -0.09091  0.89188  0.12360
   -70.00  -0.17770  0.83767  0.12547
   -60.00  -0.25098  0.74890  0.12063
   -50.00  -0.30608  0.63705  0.11222
   -40.00  -0.34194  0.51632  0.10535
   -30.00  -0.36845  0.40203  0.10946
   -20.00  -0.40898  0.30827  0.14938
   -10.00  -0.16731  0.22318  0.06601
    -4.17  -0.03737  0.17365  -0.07000
    -3.17  0.02188  0.17360  -0.07104
    -2.12  0.08321  0.17355  -0.07188
    -1.08  0.14505  0.17355  -0.07281
    -0.05  0.20638  0.17360  -0.07333
    -0.02  0.20653  0.17360  -0.07333
     1.16  0.27898  0.17371  -0.07400
     2.32  0.34721  0.17381  -0.07457
     3.48  0.41567  0.17398  -0.07496
     4.64  0.48197  0.17413  -0.07486
     5.80  0.54616  0.17432  -0.07440
     6.96  0.60702  0.17465  -0.07328
     8.11  0.65700  0.17500  -0.07021
    10.73  0.67971  0.18159  -0.05458
    13.35  0.59491  0.22759  -0.05041
    15.97  0.57447  0.25607  -0.05483
    18.59  0.58758  0.28444  -0.06171
    21.20  0.58432  0.32004  -0.07290
    23.82  0.56687  0.34458  -0.08713
    26.44  0.54942  0.36912  -0.10135
    29.06  0.53197  0.39366  -0.11557
    31.68  0.51958  0.42170  -0.12604
    34.29  0.50981  0.45154  -0.13456
    36.91  0.50004  0.48139  -0.14308
    39.53  0.49027  0.51123  -0.15161
    42.15  0.47745  0.54247  -0.15891
    44.76  0.46402  0.57400  -0.16597
    47.38  0.45058  0.60552  -0.17303
    50.00  0.43715  0.63705  -0.18008
    60.00  0.35867  0.74890  -0.20415
    70.00  0.25368  0.83767  -0.22509
    80.00  0.12998  0.89188  -0.24230
    90.00  0.00005  0.90404  -0.25467
   100.00  -0.09091  0.89188  -0.26491
   110.00  -0.17770  0.83767  -0.26683
   120.00  -0.25098  0.74890  -0.26194
   130.00  -0.30608  0.63705  -0.25358
   140.00  -0.34194  0.51632  -0.24666
   150.00  -0.36845  0.40203  -0.25077
   160.00  -0.41002  0.30837  -0.29110
   170.00  -0.20473  0.24709  -0.25992
   180.00  0.00005  0.22573  -0.00005
EOT
