AeroDyn airfoil file.  Compatible with AeroDyn v13.0.
Interpolated thickness: 0.966

  1        Number of airfoil tables in this file
  9990     Reynolds number in millions.  For efficiency, make very large if only one table.
  0        Control setting
  10.6342  Stall angle (deg)
  -1.66615 Zero lift angle of attack (deg)
  0.627659 Cn slope for zero lift (dimensionless)
  0.134747 Cn at stall value for positive angle of attack
  -0.8     Cn at stall value for negative angle of attack
  -2.12    Angle of attack for minimum CD (deg)
  0.334812 Minimum CD value
  -180.00  0.00010  0.33930  -0.00010
  -170.00  0.01772  0.34114  0.01780
  -160.00  0.03539  0.34642  -0.00650
  -150.00  0.03181  0.35448  -0.00291
  -140.00  0.02953  0.36432  -0.00041
  -130.00  0.02645  0.37471  0.00201
  -120.00  0.02170  0.38434  0.00441
  -110.00  0.01540  0.39198  0.00664
  -100.00  0.00792  0.39664  0.00846
   -90.00  0.00010  0.39769  0.00966
   -80.00  -0.00773  0.39664  0.01055
   -70.00  -0.01520  0.39198  0.01071
   -60.00  -0.02151  0.38434  0.01029
   -50.00  -0.02625  0.37471  0.00957
   -40.00  -0.02934  0.36432  0.00898
   -30.00  -0.03162  0.35448  0.00933
   -20.00  -0.03511  0.34641  0.01277
   -10.00  -0.01431  0.33908  0.00559
    -4.17  -0.00313  0.33482  -0.00612
    -3.17  0.00197  0.33482  -0.00621
    -2.12  0.00725  0.33481  -0.00628
    -1.08  0.01258  0.33481  -0.00636
    -0.05  0.01786  0.33482  -0.00640
    -0.00  0.01787  0.33482  -0.00640
     1.14  0.02410  0.33483  -0.00646
     2.29  0.02998  0.33483  -0.00651
     3.43  0.03587  0.33485  -0.00654
     4.58  0.04158  0.33486  -0.00654
     5.72  0.04710  0.33488  -0.00650
     6.87  0.05234  0.33491  -0.00640
     8.01  0.05664  0.33494  -0.00614
    10.63  0.05860  0.33550  -0.00479
    13.26  0.05130  0.33946  -0.00443
    15.88  0.04954  0.34191  -0.00481
    18.51  0.05067  0.34436  -0.00540
    21.13  0.05039  0.34742  -0.00637
    23.76  0.04889  0.34953  -0.00759
    26.38  0.04738  0.35165  -0.00882
    29.00  0.04588  0.35376  -0.01004
    31.63  0.04481  0.35617  -0.01094
    34.25  0.04397  0.35874  -0.01167
    36.88  0.04313  0.36131  -0.01241
    39.50  0.04229  0.36388  -0.01314
    42.13  0.04119  0.36657  -0.01377
    44.75  0.04003  0.36928  -0.01438
    47.38  0.03888  0.37199  -0.01498
    50.00  0.03772  0.37471  -0.01559
    60.00  0.03096  0.38434  -0.01766
    70.00  0.02193  0.39198  -0.01947
    80.00  0.01128  0.39664  -0.02095
    90.00  0.00010  0.39769  -0.02201
   100.00  -0.00773  0.39664  -0.02289
   110.00  -0.01520  0.39198  -0.02306
   120.00  -0.02151  0.38434  -0.02264
   130.00  -0.02625  0.37471  -0.02192
   140.00  -0.02934  0.36432  -0.02132
   150.00  -0.03162  0.35448  -0.02168
   160.00  -0.03520  0.34642  -0.02515
   170.00  -0.01753  0.34114  -0.02246
   180.00  0.00010  0.33930  -0.00010
EOT
