AeroDyn airfoil file.  Compatible with AeroDyn v13.0.
Interpolated thickness: 0.386

  1        Number of airfoil tables in this file
  9990     Reynolds number in millions.  For efficiency, make very large if only one table.
  0        Control setting
  10.7916  Stall angle (deg)
  -3.51265 Zero lift angle of attack (deg)
  5.30893  Cn slope for zero lift (dimensionless)
  1.32541  Cn at stall value for positive angle of attack
  -0.8     Cn at stall value for negative angle of attack
  -2.12    Angle of attack for minimum CD (deg)
  0.0757197 Minimum CD value
  -180.00  0.00002  0.15683  -0.00002
  -170.00  0.31833  0.19004  0.32314
  -160.00  0.63745  0.28529  -0.11571
  -150.00  0.57282  0.43087  -0.05092
  -140.00  0.53161  0.60853  -0.00576
  -130.00  0.47587  0.79620  0.03795
  -120.00  0.39023  0.97006  0.08134
  -110.00  0.27632  1.10805  0.12157
  -100.00  0.14140  1.19231  0.15453
   -90.00  0.00002  1.21122  0.17618
   -80.00  -0.14136  1.19231  0.19218
   -70.00  -0.27628  1.10805  0.19509
   -60.00  -0.39019  0.97006  0.18757
   -50.00  -0.47583  0.79620  0.17449
   -40.00  -0.53158  0.60853  0.16382
   -30.00  -0.57278  0.43087  0.17020
   -20.00  -0.63579  0.28513  0.23225
   -10.00  -0.26012  0.15287  0.10266
    -4.17  -0.05815  0.07588  -0.10876
    -3.17  0.03395  0.07580  -0.11038
    -2.12  0.12928  0.07572  -0.11167
    -1.08  0.22542  0.07572  -0.11312
    -0.05  0.32075  0.07580  -0.11393
    -0.04  0.32098  0.07580  -0.11393
     1.17  0.43359  0.07598  -0.11497
     2.34  0.53966  0.07612  -0.11586
     3.50  0.64608  0.07639  -0.11646
     4.67  0.74914  0.07662  -0.11631
     5.84  0.84892  0.07692  -0.11559
     7.01  0.94352  0.07743  -0.11386
     8.18  1.02120  0.07798  -0.10909
    10.79  1.05650  0.08822  -0.08478
    13.41  0.92469  0.15972  -0.07831
    16.02  0.89291  0.20399  -0.08518
    18.63  0.91329  0.24809  -0.09586
    21.25  0.90822  0.30343  -0.11327
    23.86  0.88110  0.34158  -0.13538
    26.47  0.85398  0.37972  -0.15748
    29.09  0.82685  0.41787  -0.17959
    31.70  0.80760  0.46145  -0.19586
    34.32  0.79241  0.50784  -0.20911
    36.93  0.77722  0.55423  -0.22236
    39.54  0.76203  0.60062  -0.23561
    42.16  0.74211  0.64918  -0.24696
    44.77  0.72123  0.69819  -0.25793
    47.39  0.70034  0.74719  -0.26890
    50.00  0.67946  0.79620  -0.27987
    60.00  0.55747  0.97006  -0.31728
    70.00  0.39427  1.10805  -0.34984
    80.00  0.20199  1.19231  -0.37658
    90.00  0.00002  1.21122  -0.39581
   100.00  -0.14136  1.19231  -0.41172
   110.00  -0.27628  1.10805  -0.41471
   120.00  -0.39019  0.97006  -0.40712
   130.00  -0.47583  0.79620  -0.39411
   140.00  -0.53158  0.60853  -0.38337
   150.00  -0.57278  0.43087  -0.38975
   160.00  -0.63741  0.28529  -0.45244
   170.00  -0.31829  0.19004  -0.40397
   180.00  0.00002  0.15683  -0.00002
EOT
