AeroDyn airfoil file.  Compatible with AeroDyn v13.0.
Interpolated thickness: 0.475

  1        Number of airfoil tables in this file
  9990     Reynolds number in millions.  For efficiency, make very large if only one table.
  0        Control setting
  10.7675  Stall angle (deg)
  -3.4549  Zero lift angle of attack (deg)
  4.61059  Cn slope for zero lift (dimensionless)
  1.14448  Cn at stall value for positive angle of attack
  -0.8     Cn at stall value for negative angle of attack
  -2.12    Angle of attack for minimum CD (deg)
  0.115477 Minimum CD value
  -180.00  0.00003  0.18483  -0.00003
  -170.00  0.27220  0.21322  0.27628
  -160.00  0.54506  0.29467  -0.09895
  -150.00  0.48980  0.41915  -0.04355
  -140.00  0.45457  0.57105  -0.00494
  -130.00  0.40691  0.73152  0.03244
  -120.00  0.33368  0.88018  0.06953
  -110.00  0.23628  0.99817  0.10393
  -100.00  0.12092  1.07022  0.13212
   -90.00  0.00003  1.08638  0.15063
   -80.00  -0.12086  1.07022  0.16431
   -70.00  -0.23622  0.99817  0.16679
   -60.00  -0.33362  0.88018  0.16037
   -50.00  -0.40684  0.73152  0.14918
   -40.00  -0.45451  0.57105  0.14006
   -30.00  -0.48974  0.41915  0.14552
   -20.00  -0.54362  0.29453  0.19857
   -10.00  -0.22240  0.18145  0.08777
    -4.17  -0.04971  0.11562  -0.09301
    -3.17  0.02904  0.11555  -0.09439
    -2.12  0.11056  0.11548  -0.09550
    -1.08  0.19276  0.11548  -0.09674
    -0.05  0.27427  0.11555  -0.09743
    -0.03  0.27446  0.11555  -0.09743
     1.16  0.37076  0.11570  -0.09832
     2.33  0.46145  0.11582  -0.09908
     3.49  0.55244  0.11605  -0.09960
     4.66  0.64057  0.11625  -0.09947
     5.82  0.72588  0.11651  -0.09885
     6.99  0.80677  0.11694  -0.09737
     8.15  0.87319  0.11741  -0.09329
    10.77  0.90337  0.12616  -0.07251
    13.38  0.79067  0.18730  -0.06697
    16.00  0.76350  0.22516  -0.07285
    18.61  0.78092  0.26286  -0.08198
    21.23  0.77659  0.31018  -0.09686
    23.84  0.75340  0.34280  -0.11577
    26.46  0.73021  0.37542  -0.13467
    29.08  0.70701  0.40803  -0.15357
    31.69  0.69055  0.44529  -0.16748
    34.31  0.67756  0.48496  -0.17881
    36.92  0.66457  0.52463  -0.19014
    39.54  0.65159  0.56429  -0.20147
    42.15  0.63456  0.60581  -0.21118
    44.77  0.61670  0.64772  -0.22056
    47.38  0.59884  0.68962  -0.22994
    50.00  0.58098  0.73152  -0.23932
    60.00  0.47668  0.88018  -0.27130
    70.00  0.33714  0.99817  -0.29914
    80.00  0.17273  1.07022  -0.32201
    90.00  0.00003  1.08638  -0.33845
   100.00  -0.12086  1.07022  -0.35206
   110.00  -0.23622  0.99817  -0.35461
   120.00  -0.33362  0.88018  -0.34812
   130.00  -0.40684  0.73152  -0.33700
   140.00  -0.45451  0.57105  -0.32781
   150.00  -0.48974  0.41915  -0.33327
   160.00  -0.54500  0.29467  -0.38687
   170.00  -0.27214  0.21322  -0.34543
   180.00  0.00003  0.18483  -0.00003
EOT
