AeroDyn airfoil file.  Compatible with AeroDyn v13.0.
Interpolated thickness: 0.708

  1        Number of airfoil tables in this file
  9990     Reynolds number in millions.  For efficiency, make very large if only one table.
  0        Control setting
  10.7042  Stall angle (deg)
  -3.21358 Zero lift angle of attack (deg)
  2.74992  Cn slope for zero lift (dimensionless)
  0.667987 Cn at stall value for positive angle of attack
  -0.8     Cn at stall value for negative angle of attack
  -2.12    Angle of attack for minimum CD (deg)
  0.219561 Minimum CD value
  -180.00  0.00006  0.25814  -0.00006
  -170.00  0.15144  0.27393  0.15362
  -160.00  0.30320  0.31922  -0.05508
  -150.00  0.27247  0.38846  -0.02427
  -140.00  0.25287  0.47295  -0.00279
  -130.00  0.22636  0.56220  0.01800
  -120.00  0.18564  0.64488  0.03863
  -110.00  0.13146  0.71050  0.05776
  -100.00  0.06730  0.75058  0.07344
   -90.00  0.00006  0.75957  0.08373
   -80.00  -0.06718  0.75058  0.09134
   -70.00  -0.13134  0.71050  0.09273
   -60.00  -0.18551  0.64488  0.08915
   -50.00  -0.22624  0.56220  0.08293
   -40.00  -0.25275  0.47295  0.07786
   -30.00  -0.27234  0.38846  0.08089
   -20.00  -0.30231  0.31915  0.11040
   -10.00  -0.12365  0.25625  0.04877
    -4.17  -0.02760  0.21964  -0.05178
    -3.17  0.01620  0.21960  -0.05254
    -2.12  0.06154  0.21956  -0.05316
    -1.08  0.10726  0.21956  -0.05385
    -0.05  0.15259  0.21960  -0.05424
    -0.02  0.15270  0.21960  -0.05424
     1.15  0.20626  0.21968  -0.05473
     2.31  0.25670  0.21975  -0.05515
     3.46  0.30731  0.21988  -0.05544
     4.62  0.35632  0.21999  -0.05537
     5.77  0.40377  0.22013  -0.05502
     6.93  0.44876  0.22037  -0.05420
     8.08  0.48570  0.22064  -0.05193
    10.70  0.50249  0.22550  -0.04037
    13.32  0.43980  0.25951  -0.03729
    15.94  0.42469  0.28056  -0.04056
    18.56  0.43439  0.30153  -0.04564
    21.18  0.43198  0.32785  -0.05392
    23.80  0.41908  0.34599  -0.06443
    26.42  0.40618  0.36414  -0.07495
    29.04  0.39328  0.38228  -0.08546
    31.66  0.38412  0.40300  -0.09320
    34.28  0.37690  0.42506  -0.09950
    36.90  0.36967  0.44713  -0.10580
    39.52  0.36245  0.46919  -0.11210
    42.14  0.35298  0.49228  -0.11750
    44.76  0.34305  0.51559  -0.12272
    47.38  0.33312  0.53889  -0.12794
    50.00  0.32318  0.56220  -0.13315
    60.00  0.26517  0.64488  -0.15094
    70.00  0.18756  0.71050  -0.16642
    80.00  0.09611  0.75058  -0.17914
    90.00  0.00006  0.75957  -0.18829
   100.00  -0.06718  0.75058  -0.19586
   110.00  -0.13134  0.71050  -0.19728
   120.00  -0.18551  0.64488  -0.19367
   130.00  -0.22624  0.56220  -0.18748
   140.00  -0.25275  0.47295  -0.18237
   150.00  -0.27234  0.38846  -0.18540
   160.00  -0.30308  0.31922  -0.21522
   170.00  -0.15132  0.27393  -0.19217
   180.00  0.00006  0.25814  -0.00006
EOT
