AeroDyn airfoil file.  Compatible with AeroDyn v13.0.
Interpolated thickness: 0.194

  1        Number of airfoil tables in this file
  9990     Reynolds number in millions.  For efficiency, make very large if only one table.
  0        Control setting
  14.3785  Stall angle (deg)
  -4.83262 Zero lift angle of attack (deg)
  6.25129  Cn slope for zero lift (dimensionless)
  2.09604  Cn at stall value for positive angle of attack
  -0.8     Cn at stall value for negative angle of attack
  -4.09    Angle of attack for minimum CD (deg)
  0.00800297 Minimum CD value
  -180.00  0.00000  0.16354  0.00000
  -170.00  0.39860  0.20378  0.40000
  -160.00  0.79820  0.31932  -0.13952
  -150.00  0.71031  0.49564  -0.06228
  -140.00  0.65931  0.71028  -0.00697
  -130.00  0.58966  0.93608  0.04654
  -120.00  0.48366  1.14379  0.09899
  -110.00  0.34200  1.30631  0.14656
  -100.00  0.17500  1.40173  0.18440
   -90.00  0.00000  1.41600  0.20759
   -80.00  -0.17500  1.40173  0.22824
   -70.00  -0.34200  1.30631  0.23283
   -60.00  -0.48366  1.14379  0.22431
   -50.00  -0.58966  0.93608  0.20851
   -40.00  -0.65931  0.71028  0.19491
   -30.00  -0.71031  0.49564  0.20104
   -20.00  -0.79686  0.31905  0.27574
   -10.00  -0.28389  0.10515  0.07755
    -6.04  -0.10015  0.02052  -0.11318
    -5.04  -0.00396  0.01301  -0.13547
    -4.09  0.08161  0.00800  -0.15049
    -3.02  0.19892  0.00803  -0.15199
    -2.02  0.30718  0.00807  -0.15291
    -1.03  0.41502  0.00814  -0.15375
    -0.02  0.52458  0.00830  -0.15474
     0.91  0.62761  0.00851  -0.15489
     1.82  0.72712  0.00878  -0.15541
     2.74  0.82564  0.00914  -0.15612
     3.65  0.92117  0.00947  -0.15543
     4.56  1.01437  0.00989  -0.15437
     5.47  1.09906  0.01034  -0.15189
     7.70  1.23313  0.01571  -0.13719
     9.93  1.29105  0.03713  -0.12400
    12.15  1.36831  0.06240  -0.11822
    14.38  1.39067  0.09929  -0.11373
    16.60  1.27013  0.20666  -0.12711
    18.83  1.20833  0.27677  -0.13794
    21.06  1.13209  0.33809  -0.16740
    23.28  1.10288  0.37738  -0.18960
    25.51  1.07368  0.41667  -0.21179
    27.74  1.04448  0.45597  -0.23399
    29.96  1.01760  0.49686  -0.25446
    32.19  0.99876  0.54293  -0.26970
    34.42  0.98258  0.59068  -0.28328
    36.64  0.96640  0.63843  -0.29685
    38.87  0.95022  0.68618  -0.31043
    41.09  0.93103  0.73519  -0.32285
    43.32  0.90869  0.78541  -0.33413
    45.55  0.88634  0.83563  -0.34540
    47.77  0.86400  0.88585  -0.35668
    50.00  0.84166  0.93608  -0.36795
    60.00  0.69066  1.14379  -0.41241
    70.00  0.48866  1.30631  -0.45028
    80.00  0.25000  1.40173  -0.48023
    90.00  0.00000  1.41600  -0.50041
   100.00  -0.17500  1.40173  -0.52103
   110.00  -0.34200  1.30631  -0.52565
   120.00  -0.48366  1.14379  -0.51711
   130.00  -0.58966  0.93608  -0.50134
   140.00  -0.65931  0.71028  -0.48771
   150.00  -0.71031  0.49564  -0.49383
   160.00  -0.79820  0.31932  -0.56900
   170.00  -0.39860  0.20378  -0.50000
   180.00  0.00000  0.16354  0.00000
EOT
