AeroDyn airfoil file.  Compatible with AeroDyn v13.0.
Interpolated thickness: 0.786

  1        Number of airfoil tables in this file
  9990     Reynolds number in millions.  For efficiency, make very large if only one table.
  0        Control setting
  10.6831  Stall angle (deg)
  -3.05802 Zero lift angle of attack (deg)
  2.11633  Cn slope for zero lift (dimensionless)
  0.507555 Cn at stall value for positive angle of attack
  -0.8     Cn at stall value for negative angle of attack
  -2.12    Angle of attack for minimum CD (deg)
  0.254404 Minimum CD value
  -180.00  0.00007  0.28267  -0.00007
  -170.00  0.11101  0.29425  0.11256
  -160.00  0.22224  0.32745  -0.04039
  -150.00  0.19971  0.37819  -0.01781
  -140.00  0.18535  0.44011  -0.00207
  -130.00  0.16592  0.50552  0.01316
  -120.00  0.13607  0.56611  0.02828
  -110.00  0.09637  0.61421  0.04231
  -100.00  0.04935  0.64357  0.05379
   -90.00  0.00007  0.65016  0.06134
   -80.00  -0.04920  0.64357  0.06692
   -70.00  -0.09623  0.61421  0.06793
   -60.00  -0.13593  0.56611  0.06531
   -50.00  -0.16578  0.50552  0.06075
   -40.00  -0.18521  0.44011  0.05703
   -30.00  -0.19957  0.37819  0.05926
   -20.00  -0.22153  0.32739  0.08088
   -10.00  -0.09060  0.28129  0.03572
    -4.17  -0.02020  0.25446  -0.03797
    -3.17  0.01190  0.25443  -0.03854
    -2.12  0.04512  0.25440  -0.03899
    -1.08  0.07863  0.25440  -0.03949
    -0.05  0.11186  0.25443  -0.03977
    -0.01  0.11194  0.25443  -0.03978
     1.15  0.15119  0.25449  -0.04014
     2.30  0.18816  0.25454  -0.04045
     3.46  0.22524  0.25464  -0.04066
     4.61  0.26117  0.25472  -0.04060
     5.76  0.29594  0.25482  -0.04035
     6.91  0.32891  0.25500  -0.03975
     8.06  0.35599  0.25519  -0.03809
    10.68  0.36829  0.25876  -0.02961
    13.30  0.32235  0.28368  -0.02736
    15.93  0.31128  0.29911  -0.02975
    18.55  0.31838  0.31448  -0.03348
    21.17  0.31661  0.33377  -0.03954
    23.79  0.30716  0.34706  -0.04725
    26.41  0.29771  0.36036  -0.05495
    29.03  0.28825  0.37365  -0.06266
    31.65  0.28154  0.38884  -0.06833
    34.27  0.27625  0.40501  -0.07295
    36.89  0.27095  0.42118  -0.07756
    39.52  0.26566  0.43735  -0.08218
    42.14  0.25872  0.45427  -0.08614
    44.76  0.25144  0.47136  -0.08996
    47.38  0.24416  0.48844  -0.09379
    50.00  0.23688  0.50552  -0.09761
    60.00  0.19436  0.56611  -0.11065
    70.00  0.13748  0.61421  -0.12200
    80.00  0.07047  0.64357  -0.13132
    90.00  0.00007  0.65016  -0.13802
   100.00  -0.04920  0.64357  -0.14356
   110.00  -0.09623  0.61421  -0.14461
   120.00  -0.13593  0.56611  -0.14196
   130.00  -0.16578  0.50552  -0.13743
   140.00  -0.18521  0.44011  -0.13368
   150.00  -0.19957  0.37819  -0.13591
   160.00  -0.22209  0.32745  -0.15776
   170.00  -0.11087  0.29425  -0.14086
   180.00  0.00007  0.28267  -0.00007
EOT
