AeroDyn airfoil file.  Compatible with AeroDyn v13.0.
Interpolated thickness: 0.366

  1        Number of airfoil tables in this file
  9990     Reynolds number in millions.  For efficiency, make very large if only one table.
  0        Control setting
  10.7971  Stall angle (deg)
  -3.52434 Zero lift angle of attack (deg)
  5.46494  Cn slope for zero lift (dimensionless)
  1.36599  Cn at stall value for positive angle of attack
  -0.8     Cn at stall value for negative angle of attack
  -2.12    Angle of attack for minimum CD (deg)
  0.0667855 Minimum CD value
  -180.00  0.00002  0.15054  -0.00002
  -170.00  0.32870  0.18483  0.33367
  -160.00  0.65821  0.28318  -0.11948
  -150.00  0.59147  0.43350  -0.05257
  -140.00  0.54893  0.61695  -0.00594
  -130.00  0.49137  0.81073  0.03919
  -120.00  0.40294  0.99026  0.08399
  -110.00  0.28532  1.13274  0.12553
  -100.00  0.14600  1.21975  0.15957
   -90.00  0.00002  1.23927  0.18192
   -80.00  -0.14597  1.21975  0.19844
   -70.00  -0.28528  1.13274  0.20145
   -60.00  -0.40291  0.99026  0.19369
   -50.00  -0.49133  0.81073  0.18017
   -40.00  -0.54889  0.61695  0.16916
   -30.00  -0.59144  0.43350  0.17575
   -20.00  -0.65651  0.28301  0.23982
   -10.00  -0.26860  0.14645  0.10601
    -4.17  -0.06005  0.06695  -0.11230
    -3.17  0.03505  0.06687  -0.11397
    -2.12  0.13349  0.06679  -0.11530
    -1.08  0.23276  0.06679  -0.11681
    -0.05  0.33120  0.06687  -0.11764
    -0.04  0.33143  0.06687  -0.11764
     1.17  0.44771  0.06705  -0.11871
     2.34  0.55724  0.06720  -0.11963
     3.51  0.66712  0.06748  -0.12026
     4.68  0.77354  0.06772  -0.12010
     5.85  0.87657  0.06803  -0.11935
     7.01  0.97425  0.06855  -0.11756
     8.18  1.05446  0.06912  -0.11264
    10.80  1.09091  0.07969  -0.08754
    13.41  0.95480  0.15353  -0.08085
    16.02  0.92199  0.19924  -0.08795
    18.64  0.94304  0.24477  -0.09898
    21.25  0.93780  0.30192  -0.11696
    23.86  0.90980  0.34130  -0.13978
    26.48  0.88179  0.38069  -0.16261
    29.09  0.85378  0.42008  -0.18544
    31.71  0.83390  0.46508  -0.20224
    34.32  0.81822  0.51298  -0.21592
    36.93  0.80253  0.56088  -0.22960
    39.55  0.78685  0.60878  -0.24328
    42.16  0.76628  0.65893  -0.25501
    44.77  0.74472  0.70953  -0.26633
    47.39  0.72315  0.76013  -0.27766
    50.00  0.70159  0.81073  -0.28899
    60.00  0.57562  0.99026  -0.32761
    70.00  0.40711  1.13274  -0.36123
    80.00  0.20857  1.21975  -0.38884
    90.00  0.00002  1.23927  -0.40870
   100.00  -0.14597  1.21975  -0.42513
   110.00  -0.28528  1.13274  -0.42822
   120.00  -0.40291  0.99026  -0.42038
   130.00  -0.49133  0.81073  -0.40694
   140.00  -0.54889  0.61695  -0.39585
   150.00  -0.59144  0.43350  -0.40244
   160.00  -0.65818  0.28318  -0.46717
   170.00  -0.32866  0.18483  -0.41712
   180.00  0.00002  0.15054  -0.00002
EOT
