AeroDyn airfoil file.  Compatible with AeroDyn v13.0.
Interpolated thickness: 0.981

  1        Number of airfoil tables in this file
  9990     Reynolds number in millions.  For efficiency, make very large if only one table.
  0        Control setting
  10.6302  Stall angle (deg)
  -1.1623  Zero lift angle of attack (deg)
  0.505117 Cn slope for zero lift (dimensionless)
  0.103962 Cn at stall value for positive angle of attack
  -0.8     Cn at stall value for negative angle of attack
  -2.12    Angle of attack for minimum CD (deg)
  0.341513 Minimum CD value
  -180.00  0.00010  0.34402  -0.00010
  -170.00  0.00995  0.34505  0.00990
  -160.00  0.01982  0.34800  -0.00368
  -150.00  0.01782  0.35250  -0.00167
  -140.00  0.01655  0.35800  -0.00028
  -130.00  0.01482  0.36381  0.00108
  -120.00  0.01217  0.36919  0.00242
  -110.00  0.00865  0.37346  0.00367
  -100.00  0.00447  0.37607  0.00469
   -90.00  0.00010  0.37665  0.00536
   -80.00  -0.00428  0.37607  0.00585
   -70.00  -0.00845  0.37346  0.00594
   -60.00  -0.01198  0.36919  0.00571
   -50.00  -0.01463  0.36381  0.00530
   -40.00  -0.01635  0.35800  0.00497
   -30.00  -0.01763  0.35250  0.00517
   -20.00  -0.01958  0.34799  0.00709
   -10.00  -0.00795  0.34390  0.00308
    -4.17  -0.00170  0.34152  -0.00346
    -3.17  0.00115  0.34152  -0.00351
    -2.12  0.00410  0.34151  -0.00355
    -1.08  0.00707  0.34151  -0.00360
    -0.05  0.01002  0.34152  -0.00362
    -0.00  0.01003  0.34152  -0.00362
     1.14  0.01351  0.34152  -0.00365
     2.29  0.01680  0.34152  -0.00368
     3.43  0.02009  0.34153  -0.00370
     4.57  0.02328  0.34154  -0.00370
     5.72  0.02637  0.34155  -0.00367
     6.86  0.02929  0.34157  -0.00362
     8.01  0.03170  0.34158  -0.00347
    10.63  0.03279  0.34190  -0.00272
    13.25  0.02871  0.34411  -0.00252
    15.88  0.02773  0.34548  -0.00273
    18.50  0.02836  0.34685  -0.00306
    21.13  0.02820  0.34856  -0.00360
    23.75  0.02736  0.34974  -0.00429
    26.38  0.02652  0.35092  -0.00497
    29.00  0.02568  0.35210  -0.00565
    31.63  0.02509  0.35345  -0.00616
    34.25  0.02462  0.35488  -0.00657
    36.88  0.02415  0.35632  -0.00698
    39.50  0.02368  0.35776  -0.00739
    42.13  0.02306  0.35926  -0.00774
    44.75  0.02242  0.36077  -0.00808
    47.38  0.02177  0.36229  -0.00842
    50.00  0.02112  0.36381  -0.00876
    60.00  0.01735  0.36919  -0.00992
    70.00  0.01230  0.37346  -0.01092
    80.00  0.00635  0.37607  -0.01175
    90.00  0.00010  0.37665  -0.01235
   100.00  -0.00428  0.37607  -0.01284
   110.00  -0.00845  0.37346  -0.01293
   120.00  -0.01198  0.36919  -0.01270
   130.00  -0.01463  0.36381  -0.01229
   140.00  -0.01635  0.35800  -0.01196
   150.00  -0.01763  0.35250  -0.01216
   160.00  -0.01963  0.34800  -0.01410
   170.00  -0.00975  0.34505  -0.01260
   180.00  0.00010  0.34402  -0.00010
EOT
