AeroDyn airfoil file.  Compatible with AeroDyn v13.0.
Interpolated thickness: 0.65

  1        Number of airfoil tables in this file
  9990     Reynolds number in millions.  For efficiency, make very large if only one table.
  0        Control setting
  10.72    Stall angle (deg)
  -3.29407 Zero lift angle of attack (deg)
  3.21753  Cn slope for zero lift (dimensionless)
  0.786981 Cn at stall value for positive angle of attack
  -0.8     Cn at stall value for negative angle of attack
  -2.12    Angle of attack for minimum CD (deg)
  0.193651 Minimum CD value
  -180.00  0.00005  0.23989  -0.00005
  -170.00  0.18150  0.25882  0.18416
  -160.00  0.36341  0.31311  -0.06600
  -150.00  0.32657  0.39610  -0.02907
  -140.00  0.30308  0.49737  -0.00332
  -130.00  0.27130  0.60435  0.02159
  -120.00  0.22249  0.70345  0.04632
  -110.00  0.15755  0.78211  0.06926
  -100.00  0.08065  0.83014  0.08804
   -90.00  0.00005  0.84092  0.10039
   -80.00  -0.08054  0.83014  0.10951
   -70.00  -0.15745  0.78211  0.11116
   -60.00  -0.22238  0.70345  0.10688
   -50.00  -0.27120  0.60435  0.09942
   -40.00  -0.30297  0.49737  0.09334
   -30.00  -0.32646  0.39610  0.09698
   -20.00  -0.36238  0.31302  0.13235
   -10.00  -0.14824  0.23763  0.05848
    -4.17  -0.03310  0.19374  -0.06204
    -3.17  0.01940  0.19370  -0.06296
    -2.12  0.07374  0.19365  -0.06370
    -1.08  0.12854  0.19365  -0.06453
    -0.05  0.18288  0.19370  -0.06499
    -0.02  0.18301  0.19370  -0.06499
     1.16  0.24720  0.19380  -0.06558
     2.31  0.30767  0.19388  -0.06609
     3.47  0.36833  0.19404  -0.06643
     4.63  0.42708  0.19417  -0.06635
     5.79  0.48395  0.19434  -0.06593
     6.94  0.53788  0.19463  -0.06495
     8.10  0.58216  0.19494  -0.06223
    10.72  0.60228  0.20077  -0.04837
    13.34  0.52714  0.24154  -0.04468
    15.96  0.50903  0.26677  -0.04860
    18.58  0.52065  0.29191  -0.05469
    21.19  0.51776  0.32346  -0.06461
    23.81  0.50230  0.34520  -0.07721
    26.43  0.48684  0.36694  -0.08981
    29.05  0.47138  0.38869  -0.10242
    31.67  0.46040  0.41353  -0.11169
    34.29  0.45174  0.43997  -0.11924
    36.91  0.44308  0.46642  -0.12679
    39.53  0.43442  0.49286  -0.13435
    42.14  0.42307  0.52054  -0.14082
    44.76  0.41117  0.54848  -0.14707
    47.38  0.39926  0.57641  -0.15333
    50.00  0.38736  0.60435  -0.15958
    60.00  0.31782  0.70345  -0.18090
    70.00  0.22479  0.78211  -0.19946
    80.00  0.11519  0.83014  -0.21471
    90.00  0.00005  0.84092  -0.22567
   100.00  -0.08054  0.83014  -0.23474
   110.00  -0.15745  0.78211  -0.23644
   120.00  -0.22238  0.70345  -0.23211
   130.00  -0.27120  0.60435  -0.22470
   140.00  -0.30297  0.49737  -0.21857
   150.00  -0.32646  0.39610  -0.22221
   160.00  -0.36330  0.31311  -0.25795
   170.00  -0.18139  0.25882  -0.23032
   180.00  0.00005  0.23989  -0.00005
EOT
