AeroDyn airfoil file.  Compatible with AeroDyn v13.0.
Interpolated thickness: 0.408

  1        Number of airfoil tables in this file
  9990     Reynolds number in millions.  For efficiency, make very large if only one table.
  0        Control setting
  10.7857  Stall angle (deg)
  -3.49931 Zero lift angle of attack (deg)
  5.13694  Cn slope for zero lift (dimensionless)
  1.28074  Cn at stall value for positive angle of attack
  -0.8     Cn at stall value for negative angle of attack
  -2.12    Angle of attack for minimum CD (deg)
  0.0855474 Minimum CD value
  -180.00  0.00002  0.16375  -0.00002
  -170.00  0.30693  0.19577  0.31156
  -160.00  0.61461  0.28761  -0.11157
  -150.00  0.55230  0.42797  -0.04910
  -140.00  0.51257  0.59926  -0.00555
  -130.00  0.45882  0.78021  0.03659
  -120.00  0.37625  0.94784  0.07842
  -110.00  0.26642  1.08089  0.11721
  -100.00  0.13634  1.16213  0.14899
   -90.00  0.00002  1.18036  0.16987
   -80.00  -0.13629  1.16213  0.18529
   -70.00  -0.26638  1.08089  0.18809
   -60.00  -0.37621  0.94784  0.18085
   -50.00  -0.45878  0.78021  0.16823
   -40.00  -0.51253  0.59926  0.15795
   -30.00  -0.55225  0.42797  0.16410
   -20.00  -0.61301  0.28745  0.22393
   -10.00  -0.25080  0.15994  0.09898
    -4.17  -0.05606  0.08570  -0.10487
    -3.17  0.03274  0.08563  -0.10643
    -2.12  0.12465  0.08555  -0.10767
    -1.08  0.21735  0.08555  -0.10907
    -0.05  0.30926  0.08563  -0.10985
    -0.04  0.30948  0.08563  -0.10986
     1.17  0.41806  0.08580  -0.11086
     2.33  0.52033  0.08593  -0.11171
     3.50  0.62293  0.08620  -0.11230
     4.67  0.72230  0.08642  -0.11215
     5.84  0.81851  0.08671  -0.11145
     7.00  0.90972  0.08720  -0.10978
     8.17  0.98461  0.08773  -0.10518
    10.79  1.01865  0.09760  -0.08175
    13.40  0.89156  0.16654  -0.07551
    16.01  0.86092  0.20922  -0.08213
    18.63  0.88057  0.25174  -0.09243
    21.24  0.87569  0.30510  -0.10921
    23.86  0.84953  0.34188  -0.13053
    26.47  0.82338  0.37866  -0.15185
    29.09  0.79723  0.41544  -0.17316
    31.70  0.77866  0.45746  -0.18885
    34.31  0.76402  0.50218  -0.20162
    36.93  0.74937  0.54691  -0.21439
    39.54  0.73473  0.59164  -0.22717
    42.16  0.71553  0.63846  -0.23812
    44.77  0.69539  0.68571  -0.24870
    47.39  0.67525  0.73296  -0.25927
    50.00  0.65512  0.78021  -0.26985
    60.00  0.53750  0.94784  -0.30591
    70.00  0.38015  1.08089  -0.33731
    80.00  0.19476  1.16213  -0.36309
    90.00  0.00002  1.18036  -0.38163
   100.00  -0.13629  1.16213  -0.39697
   110.00  -0.26638  1.08089  -0.39986
   120.00  -0.37621  0.94784  -0.39253
   130.00  -0.45878  0.78021  -0.37999
   140.00  -0.51253  0.59926  -0.36963
   150.00  -0.55225  0.42797  -0.37579
   160.00  -0.61457  0.28761  -0.43623
   170.00  -0.30688  0.19577  -0.38950
   180.00  0.00002  0.16375  -0.00002
EOT
