AeroDyn airfoil file.  Compatible with AeroDyn v13.0.
Interpolated thickness: 0.841

  1        Number of airfoil tables in this file
  9990     Reynolds number in millions.  For efficiency, make very large if only one table.
  0        Control setting
  10.6681  Stall angle (deg)
  -2.96232 Zero lift angle of attack (deg)
  1.64336  Cn slope for zero lift (dimensionless)
  0.39095  Cn at stall value for positive angle of attack
  -0.8     Cn at stall value for negative angle of attack
  -2.12    Angle of attack for minimum CD (deg)
  0.278973 Minimum CD value
  -180.00  0.00008  0.29998  -0.00008
  -170.00  0.08251  0.30858  0.08361
  -160.00  0.16515  0.33324  -0.03004
  -150.00  0.14841  0.37094  -0.01326
  -140.00  0.13774  0.41695  -0.00156
  -130.00  0.12330  0.46555  0.00975
  -120.00  0.10113  0.51057  0.02099
  -110.00  0.07163  0.54630  0.03141
  -100.00  0.03669  0.56812  0.03994
   -90.00  0.00008  0.57302  0.04555
   -80.00  -0.03653  0.56812  0.04969
   -70.00  -0.07147  0.54630  0.05045
   -60.00  -0.10097  0.51057  0.04850
   -50.00  -0.12315  0.46555  0.04511
   -40.00  -0.13758  0.41695  0.04235
   -30.00  -0.14825  0.37094  0.04400
   -20.00  -0.16457  0.33320  0.06007
   -10.00  -0.06729  0.29895  0.02651
    -4.17  -0.01498  0.27901  -0.02824
    -3.17  0.00887  0.27899  -0.02866
    -2.12  0.03355  0.27897  -0.02899
    -1.08  0.05845  0.27897  -0.02937
    -0.05  0.08314  0.27899  -0.02958
    -0.01  0.08319  0.27899  -0.02958
     1.15  0.11236  0.27904  -0.02985
     2.30  0.13982  0.27908  -0.03008
     3.45  0.16738  0.27915  -0.03023
     4.60  0.19407  0.27921  -0.03019
     5.75  0.21991  0.27928  -0.03001
     6.90  0.24441  0.27942  -0.02956
     8.05  0.26452  0.27956  -0.02832
    10.67  0.27366  0.28221  -0.02203
    13.29  0.23953  0.30073  -0.02035
    15.91  0.23130  0.31219  -0.02213
    18.53  0.23658  0.32361  -0.02490
    21.16  0.23527  0.33794  -0.02941
    23.78  0.22824  0.34782  -0.03513
    26.40  0.22122  0.35770  -0.04086
    29.02  0.21419  0.36758  -0.04658
    31.65  0.20921  0.37886  -0.05079
    34.27  0.20527  0.39087  -0.05422
    36.89  0.20134  0.40289  -0.05766
    39.51  0.19741  0.41490  -0.06109
    42.13  0.19225  0.42748  -0.06403
    44.76  0.18684  0.44017  -0.06687
    47.38  0.18143  0.45286  -0.06971
    50.00  0.17603  0.46555  -0.07255
    60.00  0.14443  0.51057  -0.08224
    70.00  0.10217  0.54630  -0.09067
    80.00  0.05238  0.56812  -0.09759
    90.00  0.00008  0.57302  -0.10257
   100.00  -0.03653  0.56812  -0.10669
   110.00  -0.07147  0.54630  -0.10747
   120.00  -0.10097  0.51057  -0.10550
   130.00  -0.12315  0.46555  -0.10213
   140.00  -0.13758  0.41695  -0.09935
   150.00  -0.14825  0.37094  -0.10100
   160.00  -0.16499  0.33324  -0.11724
   170.00  -0.08235  0.30858  -0.10468
   180.00  0.00008  0.29998  -0.00008
EOT
