AeroDyn airfoil file.  Compatible with AeroDyn v13.0.
Interpolated thickness: 0.19

  1        Number of airfoil tables in this file
  9990     Reynolds number in millions.  For efficiency, make very large if only one table.
  0        Control setting
  14.1874  Stall angle (deg)
  -4.95195 Zero lift angle of attack (deg)
  6.22565  Cn slope for zero lift (dimensionless)
  2.07965  Cn at stall value for positive angle of attack
  -0.8     Cn at stall value for negative angle of attack
  -4.09    Angle of attack for minimum CD (deg)
  0.00776914 Minimum CD value
  -180.00  0.00000  0.16811  0.00000
  -170.00  0.39900  0.20829  0.40000
  -160.00  0.79900  0.32361  -0.13920
  -150.00  0.71043  0.49960  -0.06221
  -140.00  0.65943  0.71379  -0.00696
  -130.00  0.58971  0.93901  0.04650
  -120.00  0.48371  1.14607  0.09884
  -110.00  0.34200  1.30787  0.14621
  -100.00  0.17500  1.40253  0.18380
   -90.00  0.00000  1.41600  0.20667
   -80.00  -0.17500  1.40253  0.22740
   -70.00  -0.34200  1.30787  0.23207
   -60.00  -0.48371  1.14607  0.22363
   -50.00  -0.58971  0.93901  0.20786
   -40.00  -0.65943  0.71379  0.19423
   -30.00  -0.71043  0.49960  0.20020
   -20.00  -0.79771  0.32334  0.27471
   -10.00  -0.28057  0.10507  0.07324
    -6.04  -0.09563  0.01872  -0.11862
    -5.04  0.00520  0.01198  -0.13894
    -4.09  0.09418  0.00777  -0.15186
    -3.02  0.21110  0.00781  -0.15331
    -2.02  0.31898  0.00786  -0.15418
    -1.03  0.42635  0.00793  -0.15494
    -0.01  0.53565  0.00810  -0.15593
     0.87  0.63362  0.00831  -0.15597
     1.74  0.72844  0.00858  -0.15642
     2.62  0.82220  0.00893  -0.15715
     3.49  0.91347  0.00926  -0.15647
     4.36  1.00269  0.00966  -0.15550
     5.23  1.08471  0.01009  -0.15336
     7.47  1.22678  0.01518  -0.13953
     9.71  1.30143  0.03378  -0.12656
    11.95  1.38946  0.05595  -0.11985
    14.19  1.41600  0.09165  -0.11432
    16.43  1.28228  0.20517  -0.12785
    18.66  1.21507  0.27624  -0.13822
    20.90  1.13453  0.33961  -0.16834
    23.14  1.10512  0.37903  -0.19056
    25.38  1.07571  0.41845  -0.21279
    27.62  1.04631  0.45787  -0.23501
    29.86  1.01884  0.49864  -0.25580
    32.09  0.99967  0.54472  -0.27122
    34.33  0.98339  0.59262  -0.28484
    36.57  0.96711  0.64053  -0.29845
    38.81  0.95083  0.68844  -0.31206
    41.05  0.93166  0.73753  -0.32459
    43.29  0.90918  0.78790  -0.33590
    45.52  0.88669  0.83827  -0.34721
    47.76  0.86420  0.88864  -0.35852
    50.00  0.84171  0.93901  -0.36983
    60.00  0.69071  1.14607  -0.41413
    70.00  0.48871  1.30787  -0.45179
    80.00  0.25000  1.40253  -0.48146
    90.00  0.00000  1.41600  -0.50133
   100.00  -0.17500  1.40253  -0.52203
   110.00  -0.34200  1.30787  -0.52673
   120.00  -0.48371  1.14607  -0.51826
   130.00  -0.58971  0.93901  -0.50251
   140.00  -0.65943  0.71379  -0.48886
   150.00  -0.71043  0.49960  -0.49483
   160.00  -0.79900  0.32361  -0.56979
   170.00  -0.39900  0.20829  -0.50000
   180.00  0.00000  0.16811  0.00000
EOT
