AeroDyn airfoil file.  Compatible with AeroDyn v13.0.
Interpolated thickness: 0.203

  1        Number of airfoil tables in this file
  9990     Reynolds number in millions.  For efficiency, make very large if only one table.
  0        Control setting
  14.8085  Stall angle (deg)
  -4.56871 Zero lift angle of attack (deg)
  6.30592  Cn slope for zero lift (dimensionless)
  2.13263  Cn at stall value for positive angle of attack
  -0.8     Cn at stall value for negative angle of attack
  -4.09    Angle of attack for minimum CD (deg)
  0.00852909 Minimum CD value
  -180.00  0.00000  0.15324  0.00000
  -170.00  0.39770  0.19365  0.40000
  -160.00  0.79640  0.30965  -0.14024
  -150.00  0.71006  0.48673  -0.06242
  -140.00  0.65906  0.70240  -0.00699
  -130.00  0.58953  0.92947  0.04663
  -120.00  0.48353  1.13864  0.09933
  -110.00  0.34200  1.30278  0.14733
  -100.00  0.17500  1.39995  0.18575
   -90.00  0.00000  1.41600  0.20964
   -80.00  -0.17500  1.39995  0.23013
   -70.00  -0.34200  1.30278  0.23452
   -60.00  -0.48353  1.13864  0.22586
   -50.00  -0.58953  0.92947  0.20997
   -40.00  -0.65906  0.70240  0.19646
   -30.00  -0.71006  0.48673  0.20293
   -20.00  -0.79493  0.30940  0.27804
   -10.00  -0.29134  0.10531  0.08725
    -6.04  -0.11033  0.02458  -0.10095
    -5.04  -0.02457  0.01534  -0.12766
    -4.09  0.05334  0.00853  -0.14741
    -3.02  0.17152  0.00853  -0.14902
    -2.02  0.28062  0.00854  -0.15007
    -1.03  0.38953  0.00860  -0.15107
    -0.02  0.49967  0.00875  -0.15205
     1.00  0.61409  0.00897  -0.15246
     2.00  0.72416  0.00924  -0.15312
     3.01  0.83336  0.00960  -0.15380
     4.01  0.93850  0.00993  -0.15307
     5.01  1.04064  0.01040  -0.15182
     6.01  1.13133  0.01092  -0.14858
     8.21  1.24742  0.01692  -0.13193
    10.41  1.26769  0.04466  -0.11824
    12.61  1.32074  0.07691  -0.11457
    14.81  1.33367  0.11647  -0.11240
    17.01  1.24280  0.21003  -0.12546
    19.21  1.19318  0.27798  -0.13731
    21.41  1.12659  0.33469  -0.16529
    23.61  1.09785  0.37368  -0.18742
    25.81  1.06911  0.41268  -0.20956
    28.01  1.04036  0.45167  -0.23170
    30.20  1.01482  0.49287  -0.25146
    32.40  0.99672  0.53892  -0.26629
    34.60  0.98076  0.58631  -0.27977
    36.80  0.96480  0.63370  -0.29326
    39.00  0.94885  0.68110  -0.30674
    41.20  0.92960  0.72990  -0.31896
    43.40  0.90758  0.77979  -0.33015
    45.60  0.88556  0.82969  -0.34135
    47.80  0.86355  0.87958  -0.35254
    50.00  0.84153  0.92947  -0.36374
    60.00  0.69053  1.13864  -0.40856
    70.00  0.48853  1.30278  -0.44690
    80.00  0.25000  1.39995  -0.47746
    90.00  0.00000  1.41600  -0.49836
   100.00  -0.17500  1.39995  -0.51880
   110.00  -0.34200  1.30278  -0.52324
   120.00  -0.48353  1.13864  -0.51452
   130.00  -0.58953  0.92947  -0.49869
   140.00  -0.65906  0.70240  -0.48512
   150.00  -0.71006  0.48673  -0.49160
   160.00  -0.79640  0.30965  -0.56724
   170.00  -0.39770  0.19365  -0.50000
   180.00  0.00000  0.15324  0.00000
EOT
