AeroDyn airfoil file.  Compatible with AeroDyn v13.0.
Interpolated thickness: 0.422

  1        Number of airfoil tables in this file
  9990     Reynolds number in millions.  For efficiency, make very large if only one table.
  0        Control setting
  10.7819  Stall angle (deg)
  -3.49053 Zero lift angle of attack (deg)
  5.02727  Cn slope for zero lift (dimensionless)
  1.25229  Cn at stall value for positive angle of attack
  -0.8     Cn at stall value for negative angle of attack
  -2.12    Angle of attack for minimum CD (deg)
  0.0918013 Minimum CD value
  -180.00  0.00002  0.16816  -0.00002
  -170.00  0.29967  0.19942  0.30419
  -160.00  0.60008  0.28908  -0.10893
  -150.00  0.53924  0.42613  -0.04794
  -140.00  0.50045  0.59337  -0.00542
  -130.00  0.44797  0.77004  0.03572
  -120.00  0.36736  0.93370  0.07656
  -110.00  0.26012  1.06360  0.11444
  -100.00  0.13312  1.14292  0.14546
   -90.00  0.00002  1.16072  0.16585
   -80.00  -0.13307  1.14292  0.18091
   -70.00  -0.26008  1.06360  0.18364
   -60.00  -0.36731  0.93370  0.17657
   -50.00  -0.44793  0.77004  0.16425
   -40.00  -0.50040  0.59337  0.15421
   -30.00  -0.53919  0.42613  0.16022
   -20.00  -0.59851  0.28893  0.21863
   -10.00  -0.24487  0.16443  0.09664
    -4.17  -0.05473  0.09195  -0.10239
    -3.17  0.03197  0.09188  -0.10391
    -2.12  0.12171  0.09180  -0.10513
    -1.08  0.21221  0.09180  -0.10650
    -0.05  0.30195  0.09188  -0.10726
    -0.04  0.30216  0.09188  -0.10726
     1.17  0.40818  0.09204  -0.10824
     2.33  0.50803  0.09218  -0.10907
     3.50  0.60820  0.09244  -0.10964
     4.67  0.70522  0.09265  -0.10950
     5.83  0.79915  0.09293  -0.10882
     7.00  0.88821  0.09341  -0.10719
     8.17  0.96133  0.09393  -0.10269
    10.78  0.99456  0.10357  -0.07982
    13.40  0.87047  0.17088  -0.07372
    16.01  0.84056  0.21255  -0.08019
    18.63  0.85975  0.25406  -0.09025
    21.24  0.85498  0.30616  -0.10663
    23.85  0.82945  0.34207  -0.12745
    26.47  0.80391  0.37798  -0.14826
    29.08  0.77838  0.41389  -0.16907
    31.70  0.76025  0.45491  -0.18438
    34.31  0.74595  0.49859  -0.19685
    36.93  0.73165  0.54226  -0.20933
    39.54  0.71736  0.58593  -0.22180
    42.16  0.69861  0.63164  -0.23249
    44.77  0.67895  0.67777  -0.24282
    47.39  0.65929  0.72391  -0.25314
    50.00  0.63963  0.77004  -0.26347
    60.00  0.52479  0.93370  -0.29868
    70.00  0.37116  1.06360  -0.32933
    80.00  0.19016  1.14292  -0.35451
    90.00  0.00002  1.16072  -0.37261
   100.00  -0.13307  1.14292  -0.38759
   110.00  -0.26008  1.06360  -0.39040
   120.00  -0.36731  0.93370  -0.38325
   130.00  -0.44793  0.77004  -0.37101
   140.00  -0.50040  0.59337  -0.36089
   150.00  -0.53919  0.42613  -0.36690
   160.00  -0.60003  0.28908  -0.42592
   170.00  -0.29962  0.19942  -0.38029
   180.00  0.00002  0.16816  -0.00002
EOT
