AeroDyn airfoil file.  Compatible with AeroDyn v13.0.
Interpolated thickness: 0.518

  1        Number of airfoil tables in this file
  9990     Reynolds number in millions.  For efficiency, make very large if only one table.
  0        Control setting
  10.7558  Stall angle (deg)
  -3.42266 Zero lift angle of attack (deg)
  4.27076  Cn slope for zero lift (dimensionless)
  1.05685  Cn at stall value for positive angle of attack
  -0.8     Cn at stall value for negative angle of attack
  -2.12    Angle of attack for minimum CD (deg)
  0.134686 Minimum CD value
  -180.00  0.00004  0.19836  -0.00004
  -170.00  0.24992  0.22443  0.25365
  -160.00  0.50043  0.29920  -0.09086
  -150.00  0.44969  0.41348  -0.03999
  -140.00  0.41735  0.55295  -0.00454
  -130.00  0.37359  0.70027  0.02977
  -120.00  0.30636  0.83676  0.06383
  -110.00  0.21694  0.94508  0.09541
  -100.00  0.11102  1.01123  0.12129
   -90.00  0.00004  1.02607  0.13828
   -80.00  -0.11095  1.01123  0.15084
   -70.00  -0.21686  0.94508  0.15313
   -60.00  -0.30629  0.83676  0.14723
   -50.00  -0.37351  0.70027  0.13695
   -40.00  -0.41727  0.55295  0.12858
   -30.00  -0.44962  0.41348  0.13359
   -20.00  -0.49909  0.29907  0.18230
   -10.00  -0.20418  0.19525  0.08057
    -4.17  -0.04563  0.13481  -0.08540
    -3.17  0.02667  0.13475  -0.08667
    -2.12  0.10151  0.13469  -0.08768
    -1.08  0.17698  0.13469  -0.08883
    -0.05  0.25182  0.13475  -0.08946
    -0.03  0.25199  0.13475  -0.08946
     1.16  0.34040  0.13489  -0.09028
     2.33  0.42367  0.13500  -0.09097
     3.49  0.50720  0.13521  -0.09145
     4.65  0.58811  0.13539  -0.09133
     5.81  0.66644  0.13563  -0.09076
     6.98  0.74070  0.13603  -0.08940
     8.14  0.80168  0.13646  -0.08565
    10.76  0.82939  0.14450  -0.06658
    13.37  0.72591  0.20063  -0.06149
    15.99  0.70097  0.23538  -0.06689
    18.60  0.71697  0.27000  -0.07528
    21.22  0.71299  0.31344  -0.08894
    23.84  0.69170  0.34339  -0.10629
    26.45  0.67041  0.37333  -0.12365
    29.07  0.64911  0.40328  -0.14100
    31.69  0.63400  0.43749  -0.15378
    34.30  0.62207  0.47391  -0.16418
    36.92  0.61015  0.51032  -0.17458
    39.53  0.59823  0.54674  -0.18498
    42.15  0.58259  0.58486  -0.19389
    44.77  0.56620  0.62333  -0.20250
    47.38  0.54980  0.66180  -0.21112
    50.00  0.53341  0.70027  -0.21973
    60.00  0.43764  0.83676  -0.24909
    70.00  0.30953  0.94508  -0.27465
    80.00  0.15859  1.01123  -0.29564
    90.00  0.00004  1.02607  -0.31074
   100.00  -0.11095  1.01123  -0.32323
   110.00  -0.21686  0.94508  -0.32558
   120.00  -0.30629  0.83676  -0.31962
   130.00  -0.37351  0.70027  -0.30940
   140.00  -0.41727  0.55295  -0.30097
   150.00  -0.44962  0.41348  -0.30598
   160.00  -0.50036  0.29920  -0.35519
   170.00  -0.24984  0.22443  -0.31714
   180.00  0.00004  0.19836  -0.00004
EOT
