AeroDyn airfoil file.  Compatible with AeroDyn v13.0.
Interpolated thickness: 0.944

  1        Number of airfoil tables in this file
  9990     Reynolds number in millions.  For efficiency, make very large if only one table.
  0        Control setting
  10.6402  Stall angle (deg)
  -2.12915 Zero lift angle of attack (deg)
  0.807131 Cn slope for zero lift (dimensionless)
  0.179883 Cn at stall value for positive angle of attack
  -0.8     Cn at stall value for negative angle of attack
  -2.12    Angle of attack for minimum CD (deg)
  0.324984 Minimum CD value
  -180.00  0.00009  0.33238  -0.00009
  -170.00  0.02912  0.33541  0.02938
  -160.00  0.05823  0.34410  -0.01064
  -150.00  0.05233  0.35738  -0.00473
  -140.00  0.04858  0.37358  -0.00062
  -130.00  0.04349  0.39070  0.00337
  -120.00  0.03568  0.40655  0.00733
  -110.00  0.02529  0.41914  0.01100
  -100.00  0.01299  0.42682  0.01400
   -90.00  0.00009  0.42855  0.01598
   -80.00  -0.01280  0.42682  0.01744
   -70.00  -0.02511  0.41914  0.01770
   -60.00  -0.03550  0.40655  0.01702
   -50.00  -0.04331  0.39070  0.01582
   -40.00  -0.04839  0.37358  0.01485
   -30.00  -0.05215  0.35738  0.01543
   -20.00  -0.05790  0.34408  0.02109
   -10.00  -0.02363  0.33202  0.00927
    -4.17  -0.00521  0.32500  -0.01001
    -3.17  0.00319  0.32499  -0.01016
    -2.12  0.01188  0.32498  -0.01028
    -1.08  0.02065  0.32498  -0.01041
    -0.05  0.02935  0.32499  -0.01048
    -0.00  0.02937  0.32499  -0.01048
     1.15  0.03964  0.32501  -0.01058
     2.29  0.04931  0.32502  -0.01066
     3.44  0.05902  0.32505  -0.01071
     4.58  0.06842  0.32507  -0.01070
     5.73  0.07752  0.32509  -0.01063
     6.87  0.08614  0.32514  -0.01048
     8.02  0.09323  0.32519  -0.01004
    10.64  0.09645  0.32612  -0.00782
    13.26  0.08443  0.33265  -0.00723
    15.89  0.08153  0.33668  -0.00786
    18.51  0.08339  0.34070  -0.00883
    21.14  0.08293  0.34575  -0.01042
    23.76  0.08045  0.34923  -0.01244
    26.38  0.07798  0.35271  -0.01445
    29.01  0.07550  0.35619  -0.01647
    31.63  0.07375  0.36016  -0.01795
    34.26  0.07236  0.36440  -0.01916
    36.88  0.07098  0.36863  -0.02037
    39.50  0.06959  0.37286  -0.02158
    42.13  0.06778  0.37729  -0.02262
    44.75  0.06587  0.38176  -0.02362
    47.38  0.06397  0.38623  -0.02462
    50.00  0.06206  0.39070  -0.02562
    60.00  0.05093  0.40655  -0.02903
    70.00  0.03605  0.41914  -0.03200
    80.00  0.01851  0.42682  -0.03444
    90.00  0.00009  0.42855  -0.03619
   100.00  -0.01280  0.42682  -0.03764
   110.00  -0.02511  0.41914  -0.03791
   120.00  -0.03550  0.40655  -0.03722
   130.00  -0.04331  0.39070  -0.03604
   140.00  -0.04839  0.37358  -0.03506
   150.00  -0.05215  0.35738  -0.03564
   160.00  -0.05804  0.34410  -0.04136
   170.00  -0.02894  0.33541  -0.03693
   180.00  0.00009  0.33238  -0.00009
EOT
