AeroDyn airfoil file.  Compatible with AeroDyn v13.0.
Interpolated thickness: 0.758

  1        Number of airfoil tables in this file
  9990     Reynolds number in millions.  For efficiency, make very large if only one table.
  0        Control setting
  10.6907  Stall angle (deg)
  -3.12248 Zero lift angle of attack (deg)
  2.3444   Cn slope for zero lift (dimensionless)
  0.5652   Cn at stall value for positive angle of attack
  -0.8     Cn at stall value for negative angle of attack
  -2.12    Angle of attack for minimum CD (deg)
  0.241896 Minimum CD value
  -180.00  0.00007  0.27387  -0.00007
  -170.00  0.12553  0.28695  0.12730
  -160.00  0.25130  0.32449  -0.04567
  -150.00  0.22583  0.38187  -0.02013
  -140.00  0.20959  0.45189  -0.00233
  -130.00  0.18762  0.52586  0.01490
  -120.00  0.15387  0.59439  0.03200
  -110.00  0.10897  0.64877  0.04785
  -100.00  0.05579  0.68199  0.06085
   -90.00  0.00007  0.68944  0.06938
   -80.00  -0.05566  0.68199  0.07568
   -70.00  -0.10883  0.64877  0.07683
   -60.00  -0.15373  0.59439  0.07387
   -50.00  -0.18748  0.52586  0.06871
   -40.00  -0.20945  0.45189  0.06451
   -30.00  -0.22569  0.38187  0.06702
   -20.00  -0.25053  0.32443  0.09148
   -10.00  -0.10246  0.27231  0.04040
    -4.17  -0.02286  0.24196  -0.04293
    -3.17  0.01344  0.24193  -0.04356
    -2.12  0.05102  0.24190  -0.04407
    -1.08  0.08891  0.24190  -0.04465
    -0.05  0.12648  0.24193  -0.04497
    -0.02  0.12657  0.24193  -0.04497
     1.15  0.17096  0.24200  -0.04538
     2.31  0.21276  0.24205  -0.04572
     3.46  0.25470  0.24216  -0.04596
     4.61  0.29532  0.24225  -0.04590
     5.76  0.33465  0.24237  -0.04562
     6.92  0.37194  0.24257  -0.04494
     8.07  0.40255  0.24279  -0.04305
    10.69  0.41647  0.24682  -0.03348
    13.31  0.36451  0.27501  -0.03092
    15.93  0.35199  0.29245  -0.03363
    18.55  0.36002  0.30983  -0.03784
    21.17  0.35803  0.33165  -0.04470
    23.79  0.34733  0.34668  -0.05342
    26.41  0.33664  0.36172  -0.06213
    29.04  0.32595  0.37675  -0.07084
    31.66  0.31836  0.39393  -0.07726
    34.28  0.31238  0.41221  -0.08248
    36.90  0.30639  0.43049  -0.08770
    39.52  0.30040  0.44878  -0.09292
    42.14  0.29256  0.46792  -0.09740
    44.76  0.28432  0.48723  -0.10172
    47.38  0.27609  0.50655  -0.10605
    50.00  0.26786  0.52586  -0.11037
    60.00  0.21978  0.59439  -0.12511
    70.00  0.15546  0.64877  -0.13794
    80.00  0.07967  0.68199  -0.14848
    90.00  0.00007  0.68944  -0.15606
   100.00  -0.05566  0.68199  -0.16234
   110.00  -0.10883  0.64877  -0.16351
   120.00  -0.15373  0.59439  -0.16052
   130.00  -0.18748  0.52586  -0.15539
   140.00  -0.20945  0.45189  -0.15116
   150.00  -0.22569  0.38187  -0.15367
   160.00  -0.25117  0.32449  -0.17838
   170.00  -0.12539  0.28695  -0.15928
   180.00  0.00007  0.27387  -0.00007
EOT
