AeroDyn airfoil file.  Compatible with AeroDyn v13.0.
Interpolated thickness: 0.564

  1        Number of airfoil tables in this file
  9990     Reynolds number in millions.  For efficiency, make very large if only one table.
  0        Control setting
  10.7433  Stall angle (deg)
  -3.38386 Zero lift angle of attack (deg)
  3.90545  Cn slope for zero lift (dimensionless)
  0.962951 Cn at stall value for positive angle of attack
  -0.8     Cn at stall value for negative angle of attack
  -2.12    Angle of attack for minimum CD (deg)
  0.155234 Minimum CD value
  -180.00  0.00004  0.21283  -0.00004
  -170.00  0.22607  0.23641  0.22943
  -160.00  0.45268  0.30405  -0.08219
  -150.00  0.40678  0.40743  -0.03618
  -140.00  0.37753  0.53358  -0.00412
  -130.00  0.33794  0.66685  0.02692
  -120.00  0.27713  0.79030  0.05773
  -110.00  0.19624  0.88829  0.08630
  -100.00  0.10044  0.94812  0.10970
   -90.00  0.00004  0.96155  0.12508
   -80.00  -0.10035  0.94812  0.13644
   -70.00  -0.19616  0.88829  0.13850
   -60.00  -0.27705  0.79030  0.13317
   -50.00  -0.33786  0.66685  0.12387
   -40.00  -0.37744  0.53358  0.11630
   -30.00  -0.40670  0.40743  0.12083
   -20.00  -0.45145  0.30393  0.16489
   -10.00  -0.18468  0.21002  0.07287
    -4.17  -0.04126  0.15535  -0.07726
    -3.17  0.02414  0.15529  -0.07841
    -2.12  0.09183  0.15523  -0.07933
    -1.08  0.16010  0.15523  -0.08036
    -0.05  0.22780  0.15529  -0.08093
    -0.03  0.22795  0.15529  -0.08093
     1.16  0.30792  0.15542  -0.08167
     2.32  0.38324  0.15552  -0.08230
     3.48  0.45881  0.15571  -0.08273
     4.64  0.53199  0.15588  -0.08262
     5.80  0.60284  0.15609  -0.08211
     6.97  0.67002  0.15645  -0.08088
     8.13  0.72518  0.15684  -0.07749
    10.74  0.75025  0.16411  -0.06023
    13.36  0.65665  0.21489  -0.05563
    15.98  0.63408  0.24632  -0.06052
    18.59  0.64855  0.27763  -0.06810
    21.21  0.64496  0.31693  -0.08046
    23.83  0.62570  0.34402  -0.09616
    26.45  0.60644  0.37111  -0.11186
    29.06  0.58718  0.39819  -0.12756
    31.68  0.57350  0.42914  -0.13911
    34.30  0.56272  0.46208  -0.14852
    36.91  0.55193  0.49502  -0.15792
    39.53  0.54114  0.52797  -0.16733
    42.15  0.52700  0.56245  -0.17540
    44.77  0.51217  0.59725  -0.18319
    47.38  0.49734  0.63205  -0.19098
    50.00  0.48251  0.66685  -0.19877
    60.00  0.39588  0.79030  -0.22533
    70.00  0.28000  0.88829  -0.24845
    80.00  0.14346  0.94812  -0.26744
    90.00  0.00004  0.96155  -0.28109
   100.00  -0.10035  0.94812  -0.29239
   110.00  -0.19616  0.88829  -0.29451
   120.00  -0.27705  0.79030  -0.28912
   130.00  -0.33786  0.66685  -0.27989
   140.00  -0.37744  0.53358  -0.27226
   150.00  -0.40670  0.40743  -0.27679
   160.00  -0.45259  0.30405  -0.32131
   170.00  -0.22599  0.23641  -0.28688
   180.00  0.00004  0.21283  -0.00004
EOT
