AeroDyn airfoil file.  Compatible with AeroDyn v13.0.
Interpolated thickness: 0.712

  1        Number of airfoil tables in this file
  9990     Reynolds number in millions.  For efficiency, make very large if only one table.
  0        Control setting
  10.7032  Stall angle (deg)
  -3.20717 Zero lift angle of attack (deg)
  2.71756  Cn slope for zero lift (dimensionless)
  0.659771 Cn at stall value for positive angle of attack
  -0.8     Cn at stall value for negative angle of attack
  -2.12    Angle of attack for minimum CD (deg)
  0.221347 Minimum CD value
  -180.00  0.00006  0.25939  -0.00006
  -170.00  0.14937  0.27497  0.15152
  -160.00  0.29905  0.31965  -0.05433
  -150.00  0.26874  0.38793  -0.02394
  -140.00  0.24941  0.47126  -0.00275
  -130.00  0.22326  0.55929  0.01775
  -120.00  0.18309  0.64084  0.03810
  -110.00  0.12966  0.70557  0.05697
  -100.00  0.06638  0.74509  0.07243
   -90.00  0.00006  0.75396  0.08259
   -80.00  -0.06625  0.74509  0.09009
   -70.00  -0.12954  0.70557  0.09145
   -60.00  -0.18297  0.64084  0.08793
   -50.00  -0.22314  0.55929  0.08179
   -40.00  -0.24929  0.47126  0.07679
   -30.00  -0.26861  0.38793  0.07978
   -20.00  -0.29817  0.31957  0.10889
   -10.00  -0.12196  0.25754  0.04810
    -4.17  -0.02722  0.22142  -0.05107
    -3.17  0.01598  0.22139  -0.05183
    -2.12  0.06069  0.22135  -0.05243
    -1.08  0.10579  0.22135  -0.05311
    -0.05  0.15050  0.22139  -0.05349
    -0.02  0.15061  0.22139  -0.05349
     1.15  0.20343  0.22147  -0.05398
     2.31  0.25319  0.22153  -0.05440
     3.46  0.30310  0.22166  -0.05468
     4.62  0.35144  0.22177  -0.05461
     5.77  0.39824  0.22191  -0.05427
     6.93  0.44262  0.22215  -0.05346
     8.08  0.47905  0.22241  -0.05122
    10.70  0.49561  0.22721  -0.03982
    13.32  0.43378  0.26075  -0.03678
    15.94  0.41888  0.28151  -0.04001
    18.56  0.42844  0.30220  -0.04502
    21.18  0.42606  0.32816  -0.05318
    23.80  0.41334  0.34605  -0.06355
    26.42  0.40062  0.36394  -0.07392
    29.04  0.38789  0.38183  -0.08429
    31.66  0.37886  0.40228  -0.09192
    34.28  0.37174  0.42404  -0.09814
    36.90  0.36461  0.44580  -0.10435
    39.52  0.35749  0.46755  -0.11057
    42.14  0.34815  0.49033  -0.11589
    44.76  0.33835  0.51332  -0.12104
    47.38  0.32855  0.53631  -0.12618
    50.00  0.31876  0.55929  -0.13133
    60.00  0.26154  0.64084  -0.14887
    70.00  0.18499  0.70557  -0.16415
    80.00  0.09480  0.74509  -0.17669
    90.00  0.00006  0.75396  -0.18571
   100.00  -0.06625  0.74509  -0.19317
   110.00  -0.12954  0.70557  -0.19458
   120.00  -0.18297  0.64084  -0.19101
   130.00  -0.22314  0.55929  -0.18491
   140.00  -0.24929  0.47126  -0.17987
   150.00  -0.26861  0.38793  -0.18287
   160.00  -0.29893  0.31965  -0.21227
   170.00  -0.14924  0.27497  -0.18954
   180.00  0.00006  0.25939  -0.00006
EOT
