AeroDyn airfoil file.  Compatible with AeroDyn v13.0.
Interpolated thickness: 0.988

  1        Number of airfoil tables in this file
  9990     Reynolds number in millions.  For efficiency, make very large if only one table.
  0        Control setting
  10.6283  Stall angle (deg)
  -0.83291 Zero lift angle of attack (deg)
  0.447883 Cn slope for zero lift (dimensionless)
  0.0895922 Cn at stall value for positive angle of attack
  -0.8     Cn at stall value for negative angle of attack
  -2.12    Angle of attack for minimum CD (deg)
  0.344639 Minimum CD value
  -180.00  0.00010  0.34622  -0.00010
  -170.00  0.00632  0.34687  0.00622
  -160.00  0.01256  0.34874  -0.00236
  -150.00  0.01129  0.35158  -0.00109
  -140.00  0.01049  0.35505  -0.00021
  -130.00  0.00940  0.35872  0.00064
  -120.00  0.00772  0.36212  0.00149
  -110.00  0.00550  0.36482  0.00228
  -100.00  0.00286  0.36646  0.00292
   -90.00  0.00010  0.36683  0.00335
   -80.00  -0.00266  0.36646  0.00366
   -70.00  -0.00530  0.36482  0.00371
   -60.00  -0.00753  0.36212  0.00357
   -50.00  -0.00920  0.35872  0.00331
   -40.00  -0.01029  0.35505  0.00310
   -30.00  -0.01110  0.35158  0.00323
   -20.00  -0.01233  0.34873  0.00444
   -10.00  -0.00499  0.34615  0.00191
    -4.17  -0.00104  0.34464  -0.00222
    -3.17  0.00076  0.34464  -0.00226
    -2.12  0.00262  0.34464  -0.00228
    -1.08  0.00450  0.34464  -0.00231
    -0.05  0.00637  0.34464  -0.00232
    -0.00  0.00637  0.34464  -0.00232
     1.14  0.00857  0.34464  -0.00235
     2.29  0.01065  0.34465  -0.00236
     3.43  0.01272  0.34465  -0.00237
     4.57  0.01474  0.34466  -0.00237
     5.72  0.01669  0.34466  -0.00236
     6.86  0.01854  0.34467  -0.00232
     8.00  0.02006  0.34468  -0.00223
    10.63  0.02075  0.34488  -0.00176
    13.25  0.01817  0.34628  -0.00163
    15.88  0.01755  0.34715  -0.00176
    18.50  0.01795  0.34801  -0.00197
    21.13  0.01785  0.34909  -0.00231
    23.75  0.01732  0.34984  -0.00274
    26.38  0.01679  0.35058  -0.00318
    29.00  0.01626  0.35133  -0.00361
    31.63  0.01588  0.35218  -0.00393
    34.25  0.01558  0.35308  -0.00418
    36.88  0.01529  0.35399  -0.00444
    39.50  0.01499  0.35490  -0.00470
    42.13  0.01460  0.35585  -0.00492
    44.75  0.01419  0.35680  -0.00514
    47.38  0.01379  0.35776  -0.00535
    50.00  0.01338  0.35872  -0.00557
    60.00  0.01099  0.36212  -0.00630
    70.00  0.00780  0.36482  -0.00694
    80.00  0.00405  0.36646  -0.00746
    90.00  0.00010  0.36683  -0.00783
   100.00  -0.00266  0.36646  -0.00814
   110.00  -0.00530  0.36482  -0.00820
   120.00  -0.00753  0.36212  -0.00805
   130.00  -0.00920  0.35872  -0.00780
   140.00  -0.01029  0.35505  -0.00759
   150.00  -0.01110  0.35158  -0.00772
   160.00  -0.01236  0.34874  -0.00894
   170.00  -0.00612  0.34687  -0.00799
   180.00  0.00010  0.34622  -0.00010
EOT
