AeroDyn airfoil file.  Compatible with AeroDyn v13.0.
Interpolated thickness: 0.311

  1        Number of airfoil tables in this file
  9990     Reynolds number in millions.  For efficiency, make very large if only one table.
  0        Control setting
  10.812   Stall angle (deg)
  -3.55458 Zero lift angle of attack (deg)
  5.8922   Cn slope for zero lift (dimensionless)
  1.47743  Cn at stall value for positive angle of attack
  -0.8     Cn at stall value for negative angle of attack
  -2.12    Angle of attack for minimum CD (deg)
  0.0422164 Minimum CD value
  -180.00  0.00001  0.13324  -0.00001
  -170.00  0.35720  0.17050  0.36262
  -160.00  0.71530  0.27738  -0.12983
  -150.00  0.64277  0.44075  -0.05712
  -140.00  0.59654  0.64011  -0.00645
  -130.00  0.53398  0.85070  0.04260
  -120.00  0.43789  1.04580  0.09128
  -110.00  0.31006  1.20064  0.13643
  -100.00  0.15866  1.29520  0.17342
   -90.00  0.00001  1.31641  0.19772
   -80.00  -0.15864  1.29520  0.21567
   -70.00  -0.31004  1.20064  0.21893
   -60.00  -0.43787  1.04580  0.21050
   -50.00  -0.53397  0.85070  0.19581
   -40.00  -0.59652  0.64011  0.18384
   -30.00  -0.64276  0.44075  0.19101
   -20.00  -0.71347  0.27720  0.26063
   -10.00  -0.29191  0.12879  0.11522
    -4.17  -0.06526  0.04240  -0.12203
    -3.17  0.03809  0.04231  -0.12385
    -2.12  0.14506  0.04222  -0.12530
    -1.08  0.25294  0.04222  -0.12693
    -0.05  0.35992  0.04231  -0.12784
    -0.04  0.36017  0.04231  -0.12784
     1.17  0.48654  0.04251  -0.12900
     2.34  0.60557  0.04267  -0.13000
     3.51  0.72498  0.04297  -0.13068
     4.69  0.84064  0.04323  -0.13051
     5.86  0.95260  0.04357  -0.12970
     7.03  1.05876  0.04413  -0.12775
     8.20  1.14593  0.04475  -0.12240
    10.81  1.18554  0.05624  -0.09513
    13.42  1.03762  0.13648  -0.08786
    16.04  1.00197  0.18616  -0.09557
    18.65  1.02484  0.23564  -0.10756
    21.26  1.01915  0.29775  -0.12709
    23.87  0.98871  0.34055  -0.15190
    26.49  0.95828  0.38335  -0.17671
    29.10  0.92784  0.42616  -0.20152
    31.71  0.90623  0.47506  -0.21977
    34.32  0.88919  0.52712  -0.23464
    36.94  0.87214  0.57918  -0.24951
    39.55  0.85510  0.63123  -0.26437
    42.16  0.83275  0.68573  -0.27712
    44.77  0.80931  0.74072  -0.28943
    47.39  0.78588  0.79571  -0.30174
    50.00  0.76244  0.85070  -0.31405
    60.00  0.62555  1.04580  -0.35602
    70.00  0.44242  1.20064  -0.39256
    80.00  0.22665  1.29520  -0.42257
    90.00  0.00001  1.31641  -0.44414
   100.00  -0.15864  1.29520  -0.46200
   110.00  -0.31004  1.20064  -0.46536
   120.00  -0.43787  1.04580  -0.45683
   130.00  -0.53397  0.85070  -0.44224
   140.00  -0.59652  0.64011  -0.43018
   150.00  -0.64276  0.44075  -0.43734
   160.00  -0.71528  0.27738  -0.50769
   170.00  -0.35718  0.17050  -0.45330
   180.00  0.00001  0.13324  -0.00001
EOT
