AeroDyn airfoil file.  Compatible with AeroDyn v13.0.
Interpolated thickness: 0.819

  1        Number of airfoil tables in this file
  9990     Reynolds number in millions.  For efficiency, make very large if only one table.
  0        Control setting
  10.6741  Stall angle (deg)
  -3.04258 Zero lift angle of attack (deg)
  1.82112  Cn slope for zero lift (dimensionless)
  0.435979 Cn at stall value for positive angle of attack
  -0.8     Cn at stall value for negative angle of attack
  -2.12    Angle of attack for minimum CD (deg)
  0.269145 Minimum CD value
  -180.00  0.00008  0.29306  -0.00008
  -170.00  0.09391  0.30284  0.09519
  -160.00  0.18798  0.33092  -0.03418
  -150.00  0.16893  0.37384  -0.01508
  -140.00  0.15678  0.42621  -0.00177
  -130.00  0.14035  0.48153  0.01112
  -120.00  0.11511  0.53279  0.02391
  -110.00  0.08153  0.57346  0.03577
  -100.00  0.04175  0.59830  0.04548
   -90.00  0.00008  0.60388  0.05187
   -80.00  -0.04160  0.59830  0.05658
   -70.00  -0.08137  0.57346  0.05744
   -60.00  -0.11495  0.53279  0.05522
   -50.00  -0.14020  0.48153  0.05137
   -40.00  -0.15663  0.42621  0.04822
   -30.00  -0.16878  0.37384  0.05010
   -20.00  -0.18735  0.33088  0.06839
   -10.00  -0.07661  0.29189  0.03019
    -4.17  -0.01707  0.26919  -0.03213
    -3.17  0.01008  0.26917  -0.03261
    -2.12  0.03818  0.26915  -0.03299
    -1.08  0.06652  0.26915  -0.03342
    -0.05  0.09462  0.26917  -0.03366
    -0.01  0.09469  0.26917  -0.03366
     1.15  0.12789  0.26922  -0.03396
     2.30  0.15916  0.26926  -0.03422
     3.45  0.19053  0.26934  -0.03440
     4.60  0.22091  0.26941  -0.03436
     5.75  0.25032  0.26950  -0.03414
     6.90  0.27821  0.26965  -0.03363
     8.05  0.30111  0.26981  -0.03223
    10.67  0.31151  0.27283  -0.02506
    13.30  0.27266  0.29391  -0.02315
    15.92  0.26329  0.30696  -0.02518
    18.54  0.26930  0.31996  -0.02833
    21.16  0.26780  0.33627  -0.03346
    23.78  0.25981  0.34752  -0.03998
    26.40  0.25181  0.35876  -0.04650
    29.03  0.24382  0.37001  -0.05301
    31.65  0.23814  0.38285  -0.05781
    34.27  0.23366  0.39653  -0.06171
    36.89  0.22919  0.41020  -0.06562
    39.51  0.22471  0.42388  -0.06952
    42.13  0.21884  0.43820  -0.07287
    44.76  0.21268  0.45264  -0.07611
    47.38  0.20652  0.46709  -0.07934
    50.00  0.20037  0.48153  -0.08257
    60.00  0.16441  0.53279  -0.09360
    70.00  0.11630  0.57346  -0.10320
    80.00  0.05962  0.59830  -0.11108
    90.00  0.00008  0.60388  -0.11675
   100.00  -0.04160  0.59830  -0.12144
   110.00  -0.08137  0.57346  -0.12232
   120.00  -0.11495  0.53279  -0.12008
   130.00  -0.14020  0.48153  -0.11625
   140.00  -0.15663  0.42621  -0.11308
   150.00  -0.16878  0.37384  -0.11496
   160.00  -0.18783  0.33092  -0.13344
   170.00  -0.09376  0.30284  -0.11916
   180.00  0.00008  0.29306  -0.00008
EOT
