AeroDyn airfoil file.  Compatible with AeroDyn v13.0.
Interpolated thickness: 0.295

  1        Number of airfoil tables in this file
  9990     Reynolds number in millions.  For efficiency, make very large if only one table.
  0        Control setting
  10.8163  Stall angle (deg)
  -3.56292 Zero lift angle of attack (deg)
  6.01602  Cn slope for zero lift (dimensionless)
  1.50981  Cn at stall value for positive angle of attack
  -0.8     Cn at stall value for negative angle of attack
  -2.12    Angle of attack for minimum CD (deg)
  0.0350691 Minimum CD value
  -180.00  0.00001  0.12820  -0.00001
  -170.00  0.36549  0.16633  0.37105
  -160.00  0.73191  0.27570  -0.13284
  -150.00  0.65770  0.44286  -0.05845
  -140.00  0.61039  0.64684  -0.00659
  -130.00  0.54638  0.86233  0.04359
  -120.00  0.44805  1.06196  0.09341
  -110.00  0.31726  1.22040  0.13960
  -100.00  0.16234  1.31715  0.17745
   -90.00  0.00001  1.33886  0.20231
   -80.00  -0.16233  1.31715  0.22068
   -70.00  -0.31724  1.22040  0.22402
   -60.00  -0.44804  1.06196  0.21539
   -50.00  -0.54637  0.86233  0.20036
   -40.00  -0.61037  0.64684  0.18812
   -30.00  -0.65768  0.44286  0.19544
   -20.00  -0.73004  0.27551  0.26669
   -10.00  -0.29869  0.12366  0.11789
    -4.17  -0.06678  0.03525  -0.12487
    -3.17  0.03897  0.03516  -0.12672
    -2.12  0.14843  0.03507  -0.12821
    -1.08  0.25882  0.03507  -0.12988
    -0.05  0.36828  0.03516  -0.13080
    -0.04  0.36853  0.03516  -0.13081
     1.17  0.49784  0.03536  -0.13200
     2.34  0.61963  0.03553  -0.13302
     3.52  0.74181  0.03584  -0.13371
     4.69  0.86015  0.03611  -0.13354
     5.86  0.97472  0.03645  -0.13270
     7.03  1.08334  0.03703  -0.13072
     8.20  1.17253  0.03767  -0.12524
    10.82  1.21307  0.04942  -0.09733
    13.43  1.06172  0.13152  -0.08990
    16.04  1.02523  0.18235  -0.09779
    18.65  1.04863  0.23298  -0.11006
    21.27  1.04282  0.29653  -0.13004
    23.88  1.01167  0.34033  -0.15543
    26.49  0.98053  0.38413  -0.18081
    29.10  0.94939  0.42793  -0.20619
    31.71  0.92727  0.47797  -0.22487
    34.33  0.90983  0.53123  -0.24009
    36.94  0.89239  0.58450  -0.25530
    39.55  0.87495  0.63776  -0.27051
    42.16  0.85209  0.69352  -0.28355
    44.78  0.82811  0.74979  -0.29615
    47.39  0.80413  0.80606  -0.30874
    50.00  0.78015  0.86233  -0.32134
    60.00  0.64007  1.06196  -0.36429
    70.00  0.45269  1.22040  -0.40167
    80.00  0.23192  1.31715  -0.43238
    90.00  0.00001  1.33886  -0.45445
   100.00  -0.16233  1.31715  -0.47273
   110.00  -0.31724  1.22040  -0.47616
   120.00  -0.44804  1.06196  -0.46744
   130.00  -0.54637  0.86233  -0.45251
   140.00  -0.61037  0.64684  -0.44017
   150.00  -0.65768  0.44286  -0.44750
   160.00  -0.73189  0.27570  -0.51948
   170.00  -0.36548  0.16633  -0.46382
   180.00  0.00001  0.12820  -0.00001
EOT
