AeroDyn airfoil file.  Compatible with AeroDyn v13.0.
Interpolated thickness: 0.193

  1        Number of airfoil tables in this file
  9990     Reynolds number in millions.  For efficiency, make very large if only one table.
  0        Control setting
  14.3307  Stall angle (deg)
  -4.86233 Zero lift angle of attack (deg)
  6.24496  Cn slope for zero lift (dimensionless)
  2.09195  Cn at stall value for positive angle of attack
  -0.8     Cn at stall value for negative angle of attack
  -4.09    Angle of attack for minimum CD (deg)
  0.00794451 Minimum CD value
  -180.00  0.00000  0.16468  0.00000
  -170.00  0.39870  0.20491  0.40000
  -160.00  0.79840  0.32039  -0.13944
  -150.00  0.71034  0.49663  -0.06226
  -140.00  0.65934  0.71116  -0.00697
  -130.00  0.58967  0.93681  0.04653
  -120.00  0.48367  1.14436  0.09895
  -110.00  0.34200  1.30670  0.14647
  -100.00  0.17500  1.40193  0.18425
   -90.00  0.00000  1.41600  0.20736
   -80.00  -0.17500  1.40193  0.22803
   -70.00  -0.34200  1.30670  0.23264
   -60.00  -0.48367  1.14436  0.22414
   -50.00  -0.58967  0.93681  0.20835
   -40.00  -0.65934  0.71116  0.19474
   -30.00  -0.71034  0.49663  0.20083
   -20.00  -0.79707  0.32012  0.27548
   -10.00  -0.28306  0.10513  0.07647
    -6.04  -0.09902  0.02007  -0.11454
    -5.04  -0.00167  0.01275  -0.13634
    -4.09  0.08475  0.00794  -0.15083
    -3.02  0.20197  0.00798  -0.15232
    -2.02  0.31013  0.00802  -0.15323
    -1.03  0.41785  0.00808  -0.15405
    -0.02  0.52735  0.00825  -0.15503
     0.90  0.62911  0.00846  -0.15516
     1.80  0.72745  0.00873  -0.15566
     2.71  0.82478  0.00909  -0.15638
     3.61  0.91924  0.00941  -0.15569
     4.51  1.01145  0.00983  -0.15465
     5.41  1.09547  0.01028  -0.15226
     7.64  1.23154  0.01558  -0.13777
     9.87  1.29364  0.03629  -0.12464
    12.10  1.37360  0.06079  -0.11863
    14.33  1.39700  0.09738  -0.11388
    16.56  1.27317  0.20629  -0.12730
    18.79  1.21002  0.27664  -0.13801
    21.02  1.13270  0.33847  -0.16763
    23.25  1.10344  0.37780  -0.18984
    25.48  1.07419  0.41712  -0.21204
    27.71  1.04494  0.45644  -0.23425
    29.94  1.01791  0.49731  -0.25480
    32.17  0.99899  0.54338  -0.27008
    34.39  0.98278  0.59117  -0.28367
    36.62  0.96658  0.63896  -0.29725
    38.85  0.95037  0.68674  -0.31083
    41.08  0.93119  0.73577  -0.32329
    43.31  0.90881  0.78603  -0.33457
    45.54  0.88643  0.83629  -0.34586
    47.77  0.86405  0.88655  -0.35714
    50.00  0.84167  0.93681  -0.36842
    60.00  0.69067  1.14436  -0.41284
    70.00  0.48867  1.30670  -0.45066
    80.00  0.25000  1.40193  -0.48054
    90.00  0.00000  1.41600  -0.50064
   100.00  -0.17500  1.40193  -0.52128
   110.00  -0.34200  1.30670  -0.52592
   120.00  -0.48367  1.14436  -0.51740
   130.00  -0.58967  0.93681  -0.50163
   140.00  -0.65934  0.71116  -0.48800
   150.00  -0.71034  0.49663  -0.49408
   160.00  -0.79840  0.32039  -0.56920
   170.00  -0.39870  0.20491  -0.50000
   180.00  0.00000  0.16468  0.00000
EOT
