AeroDyn airfoil file.  Compatible with AeroDyn v13.0.
Interpolated thickness: 0.28

  1        Number of airfoil tables in this file
  9990     Reynolds number in millions.  For efficiency, make very large if only one table.
  0        Control setting
  10.8204  Stall angle (deg)
  -3.57058 Zero lift angle of attack (deg)
  6.13191  Cn slope for zero lift (dimensionless)
  1.54015  Cn at stall value for positive angle of attack
  -0.8     Cn at stall value for negative angle of attack
  -2.12    Angle of attack for minimum CD (deg)
  0.0283684 Minimum CD value
  -180.00  0.00001  0.12348  -0.00001
  -170.00  0.37327  0.16242  0.37894
  -160.00  0.74748  0.27412  -0.13567
  -150.00  0.67169  0.44483  -0.05969
  -140.00  0.62337  0.65316  -0.00673
  -130.00  0.55801  0.87323  0.04452
  -120.00  0.45758  1.07711  0.09539
  -110.00  0.32401  1.23892  0.14257
  -100.00  0.16579  1.33773  0.18123
   -90.00  0.00001  1.35989  0.20662
   -80.00  -0.16578  1.33773  0.22537
   -70.00  -0.32399  1.23892  0.22878
   -60.00  -0.45757  1.07711  0.21997
   -50.00  -0.55799  0.87323  0.20463
   -40.00  -0.62336  0.65316  0.19212
   -30.00  -0.67168  0.44483  0.19961
   -20.00  -0.74557  0.27393  0.27236
   -10.00  -0.30505  0.11884  0.12041
    -4.17  -0.06821  0.02856  -0.12752
    -3.17  0.03979  0.02846  -0.12942
    -2.12  0.15158  0.02837  -0.13093
    -1.08  0.26432  0.02837  -0.13264
    -0.05  0.37611  0.02846  -0.13358
    -0.05  0.37637  0.02846  -0.13359
     1.17  0.50843  0.02867  -0.13480
     2.35  0.63281  0.02884  -0.13584
     3.52  0.75760  0.02916  -0.13655
     4.69  0.87845  0.02943  -0.13638
     5.86  0.99546  0.02978  -0.13553
     7.04  1.10639  0.03037  -0.13350
     8.21  1.19748  0.03102  -0.12790
    10.82  1.23888  0.04302  -0.09940
    13.43  1.08430  0.12687  -0.09181
    16.04  1.04705  0.17879  -0.09987
    18.66  1.07094  0.23049  -0.11240
    21.27  1.06500  0.29539  -0.13281
    23.88  1.03320  0.34012  -0.15873
    26.49  1.00139  0.38486  -0.18466
    29.10  0.96958  0.42959  -0.21058
    31.72  0.94700  0.48069  -0.22966
    34.33  0.92919  0.53509  -0.24519
    36.94  0.91138  0.58949  -0.26073
    39.55  0.89357  0.64389  -0.27626
    42.16  0.87021  0.70083  -0.28958
    44.78  0.84572  0.75830  -0.30245
    47.39  0.82123  0.81576  -0.31531
    50.00  0.79674  0.87323  -0.32817
    60.00  0.65369  1.07711  -0.37204
    70.00  0.46232  1.23892  -0.41022
    80.00  0.23685  1.33773  -0.44157
    90.00  0.00001  1.35989  -0.46412
   100.00  -0.16578  1.33773  -0.48278
   110.00  -0.32399  1.23892  -0.48629
   120.00  -0.45757  1.07711  -0.47738
   130.00  -0.55799  0.87323  -0.46213
   140.00  -0.62336  0.65316  -0.44953
   150.00  -0.67168  0.44483  -0.45702
   160.00  -0.74747  0.27412  -0.53053
   170.00  -0.37326  0.16242  -0.47369
   180.00  0.00001  0.12348  -0.00001
EOT
