AeroDyn airfoil file.  Compatible with AeroDyn v13.0.
Interpolated thickness: 0.269

  1        Number of airfoil tables in this file
  9990     Reynolds number in millions.  For efficiency, make very large if only one table.
  0        Control setting
  10.8234  Stall angle (deg)
  -3.57609 Zero lift angle of attack (deg)
  6.21677  Cn slope for zero lift (dimensionless)
  1.56239  Cn at stall value for positive angle of attack
  -0.8     Cn at stall value for negative angle of attack
  -2.12    Angle of attack for minimum CD (deg)
  0.0234546 Minimum CD value
  -180.00  0.00000  0.12002  -0.00000
  -170.00  0.37897  0.15956  0.38473
  -160.00  0.75890  0.27296  -0.13774
  -150.00  0.68195  0.44628  -0.06060
  -140.00  0.63290  0.65779  -0.00683
  -130.00  0.56653  0.88123  0.04520
  -120.00  0.46457  1.08821  0.09685
  -110.00  0.32895  1.25250  0.14475
  -100.00  0.16833  1.35282  0.18400
   -90.00  0.00000  1.37532  0.20977
   -80.00  -0.16832  1.35282  0.22882
   -70.00  -0.32895  1.25250  0.23228
   -60.00  -0.46457  1.08821  0.22334
   -50.00  -0.56652  0.88123  0.20775
   -40.00  -0.63289  0.65779  0.19506
   -30.00  -0.68194  0.44628  0.20266
   -20.00  -0.75697  0.27276  0.27653
   -10.00  -0.30971  0.11531  0.12225
    -4.17  -0.06925  0.02365  -0.12947
    -3.17  0.04040  0.02355  -0.13139
    -2.12  0.15390  0.02345  -0.13293
    -1.08  0.26836  0.02345  -0.13466
    -0.05  0.38186  0.02355  -0.13562
    -0.05  0.38212  0.02355  -0.13563
     1.17  0.51620  0.02376  -0.13686
     2.35  0.64248  0.02393  -0.13792
     3.52  0.76917  0.02426  -0.13864
     4.69  0.89187  0.02453  -0.13846
     5.87  1.01066  0.02489  -0.13760
     7.04  1.12329  0.02549  -0.13554
     8.21  1.21577  0.02615  -0.12985
    10.82  1.25780  0.03833  -0.10092
    13.44  1.10087  0.12347  -0.09321
    16.05  1.06304  0.17617  -0.10139
    18.66  1.08730  0.22867  -0.11411
    21.27  1.08127  0.29456  -0.13483
    23.88  1.04898  0.33997  -0.16115
    26.49  1.01669  0.38539  -0.18747
    29.11  0.98439  0.43080  -0.21380
    31.72  0.96147  0.48269  -0.23316
    34.33  0.94338  0.53792  -0.24894
    36.94  0.92530  0.59315  -0.26471
    39.55  0.90722  0.64838  -0.28048
    42.16  0.88351  0.70619  -0.29400
    44.78  0.85864  0.76454  -0.30707
    47.39  0.83378  0.82288  -0.32013
    50.00  0.80891  0.88123  -0.33319
    60.00  0.66367  1.08821  -0.37772
    70.00  0.46938  1.25250  -0.41648
    80.00  0.24046  1.35282  -0.44832
    90.00  0.00000  1.37532  -0.47121
   100.00  -0.16832  1.35282  -0.49016
   110.00  -0.32895  1.25250  -0.49372
   120.00  -0.46457  1.08821  -0.48468
   130.00  -0.56652  0.88123  -0.46919
   140.00  -0.63289  0.65779  -0.45640
   150.00  -0.68194  0.44628  -0.46400
   160.00  -0.75889  0.27296  -0.53864
   170.00  -0.37896  0.15956  -0.48092
   180.00  0.00000  0.12002  -0.00000
EOT
