AeroDyn airfoil file.  Compatible with AeroDyn v13.0.
Interpolated thickness: 0.183

  1        Number of airfoil tables in this file
  9990     Reynolds number in millions.  For efficiency, make very large if only one table.
  0        Control setting
  13.853   Stall angle (deg)
  -5.16409 Zero lift angle of attack (deg)
  6.17871  Cn slope for zero lift (dimensionless)
  2.05078  Cn at stall value for positive angle of attack
  -0.8     Cn at stall value for negative angle of attack
  -4.09    Angle of attack for minimum CD (deg)
  0.00735994 Minimum CD value
  -180.00  0.00000  0.17612  0.00000
  -170.00  0.39970  0.21617  0.40000
  -160.00  0.80040  0.33113  -0.13864
  -150.00  0.71063  0.50653  -0.06210
  -140.00  0.65963  0.71992  -0.00694
  -130.00  0.58981  0.94415  0.04643
  -120.00  0.48381  1.15007  0.09858
  -110.00  0.34200  1.31061  0.14561
  -100.00  0.17500  1.40392  0.18275
   -90.00  0.00000  1.41600  0.20507
   -80.00  -0.17500  1.40392  0.22593
   -70.00  -0.34200  1.31061  0.23075
   -60.00  -0.48381  1.15007  0.22243
   -50.00  -0.58981  0.94415  0.20672
   -40.00  -0.65963  0.71992  0.19303
   -30.00  -0.71063  0.50653  0.19873
   -20.00  -0.79921  0.33085  0.27292
   -10.00  -0.27477  0.10494  0.06570
    -6.04  -0.08771  0.01556  -0.12813
    -5.04  0.02123  0.01017  -0.14502
    -4.09  0.11617  0.00736  -0.15425
    -3.02  0.23242  0.00742  -0.15562
    -2.02  0.33964  0.00749  -0.15639
    -1.03  0.44618  0.00757  -0.15703
    -0.01  0.55502  0.00775  -0.15802
     0.80  0.64414  0.00796  -0.15786
     1.61  0.73074  0.00823  -0.15820
     2.41  0.81620  0.00857  -0.15895
     3.21  0.89999  0.00890  -0.15831
     4.01  0.98226  0.00927  -0.15749
     4.82  1.05961  0.00964  -0.15593
     7.08  1.21567  0.01424  -0.14362
     9.33  1.31959  0.02792  -0.13103
    11.59  1.42646  0.04467  -0.12269
    13.85  1.46033  0.07829  -0.11536
    16.11  1.30354  0.20255  -0.12914
    18.37  1.22685  0.27530  -0.13872
    20.63  1.13880  0.34226  -0.16998
    22.89  1.10903  0.38191  -0.19225
    25.15  1.07927  0.42156  -0.21452
    27.41  1.04951  0.46122  -0.23680
    29.67  1.02101  0.50174  -0.25813
    31.93  1.00125  0.54784  -0.27388
    34.19  0.98480  0.59602  -0.28756
    36.44  0.96835  0.64421  -0.30124
    38.70  0.95189  0.69239  -0.31493
    40.96  0.93278  0.74164  -0.32761
    43.22  0.91003  0.79227  -0.33899
    45.48  0.88729  0.84290  -0.35036
    47.74  0.86455  0.89353  -0.36174
    50.00  0.84181  0.94415  -0.37311
    60.00  0.69081  1.15007  -0.41713
    70.00  0.48881  1.31061  -0.45442
    80.00  0.25000  1.40392  -0.48361
    90.00  0.00000  1.41600  -0.50293
   100.00  -0.17500  1.40392  -0.52377
   110.00  -0.34200  1.31061  -0.52861
   120.00  -0.48381  1.15007  -0.52027
   130.00  -0.58981  0.94415  -0.50457
   140.00  -0.65963  0.71992  -0.49087
   150.00  -0.71063  0.50653  -0.49657
   160.00  -0.80040  0.33113  -0.57116
   170.00  -0.39970  0.21617  -0.50000
   180.00  0.00000  0.17612  0.00000
EOT
