AeroDyn airfoil file.  Compatible with AeroDyn v13.0.
Interpolated thickness: 0.504

  1        Number of airfoil tables in this file
  9990     Reynolds number in millions.  For efficiency, make very large if only one table.
  0        Control setting
  10.7596  Stall angle (deg)
  -3.43353 Zero lift angle of attack (deg)
  4.38158  Cn slope for zero lift (dimensionless)
  1.08539  Cn at stall value for positive angle of attack
  -0.8     Cn at stall value for negative angle of attack
  -2.12    Angle of attack for minimum CD (deg)
  0.128432 Minimum CD value
  -180.00  0.00003  0.19396  -0.00003
  -170.00  0.25717  0.22078  0.26102
  -160.00  0.51496  0.29772  -0.09349
  -150.00  0.46275  0.41533  -0.04115
  -140.00  0.42947  0.55884  -0.00467
  -130.00  0.38443  0.71045  0.03064
  -120.00  0.31526  0.85089  0.06569
  -110.00  0.22323  0.96236  0.09819
  -100.00  0.11425  1.03043  0.12481
   -90.00  0.00003  1.04571  0.14230
   -80.00  -0.11418  1.03043  0.15523
   -70.00  -0.22317  0.96236  0.15758
   -60.00  -0.31519  0.85089  0.15151
   -50.00  -0.38437  0.71045  0.14093
   -40.00  -0.42940  0.55884  0.13232
   -30.00  -0.46268  0.41533  0.13747
   -20.00  -0.51359  0.29759  0.18760
   -10.00  -0.21011  0.19076  0.08291
    -4.17  -0.04695  0.12856  -0.08788
    -3.17  0.02745  0.12850  -0.08918
    -2.12  0.10446  0.12843  -0.09023
    -1.08  0.18212  0.12843  -0.09140
    -0.05  0.25913  0.12850  -0.09206
    -0.03  0.25931  0.12850  -0.09206
     1.16  0.35028  0.12864  -0.09290
     2.33  0.43597  0.12875  -0.09361
     3.49  0.52193  0.12898  -0.09410
     4.65  0.60519  0.12916  -0.09398
     5.82  0.68579  0.12940  -0.09339
     6.98  0.76221  0.12981  -0.09200
     8.14  0.82496  0.13026  -0.08814
    10.76  0.85348  0.13853  -0.06851
    13.38  0.74700  0.19629  -0.06328
    15.99  0.72133  0.23205  -0.06883
    18.61  0.73779  0.26767  -0.07746
    21.22  0.73370  0.31238  -0.09152
    23.84  0.71179  0.34320  -0.10938
    26.46  0.68988  0.37401  -0.12724
    29.07  0.66797  0.40483  -0.14510
    31.69  0.65241  0.44003  -0.15824
    34.30  0.64014  0.47751  -0.16894
    36.92  0.62787  0.51498  -0.17964
    39.54  0.61560  0.55246  -0.19035
    42.15  0.59951  0.59168  -0.19952
    44.77  0.58264  0.63127  -0.20838
    47.38  0.56577  0.67086  -0.21724
    50.00  0.54890  0.71045  -0.22611
    60.00  0.45035  0.85089  -0.25632
    70.00  0.31852  0.96236  -0.28262
    80.00  0.16319  1.03043  -0.30423
    90.00  0.00003  1.04571  -0.31976
   100.00  -0.11418  1.03043  -0.33262
   110.00  -0.22317  0.96236  -0.33503
   120.00  -0.31519  0.85089  -0.32890
   130.00  -0.38437  0.71045  -0.31839
   140.00  -0.42940  0.55884  -0.30971
   150.00  -0.46268  0.41533  -0.31486
   160.00  -0.51489  0.29772  -0.36551
   170.00  -0.25710  0.22078  -0.32635
   180.00  0.00003  0.19396  -0.00003
EOT
