AeroDyn airfoil file.  Compatible with AeroDyn v13.0.
Interpolated thickness: 0.925

  1        Number of airfoil tables in this file
  9990     Reynolds number in millions.  For efficiency, make very large if only one table.
  0        Control setting
  10.6454  Stall angle (deg)
  -2.39062 Zero lift angle of attack (deg)
  0.961885 Cn slope for zero lift (dimensionless)
  0.218849 Cn at stall value for positive angle of attack
  -0.8     Cn at stall value for negative angle of attack
  -2.12    Angle of attack for minimum CD (deg)
  0.316497 Minimum CD value
  -180.00  0.00009  0.32640  -0.00009
  -170.00  0.03897  0.33046  0.03938
  -160.00  0.07795  0.34210  -0.01422
  -150.00  0.07006  0.35988  -0.00631
  -140.00  0.06502  0.38158  -0.00079
  -130.00  0.05822  0.40450  0.00455
  -120.00  0.04775  0.42574  0.00985
  -110.00  0.03384  0.44260  0.01476
  -100.00  0.01736  0.45289  0.01879
   -90.00  0.00009  0.45520  0.02143
   -80.00  -0.01718  0.45289  0.02339
   -70.00  -0.03366  0.44260  0.02374
   -60.00  -0.04757  0.42574  0.02282
   -50.00  -0.05803  0.40450  0.02123
   -40.00  -0.06484  0.38158  0.01992
   -30.00  -0.06988  0.35988  0.02070
   -20.00  -0.07757  0.34208  0.02828
   -10.00  -0.03169  0.32592  0.01245
    -4.17  -0.00702  0.31652  -0.01337
    -3.17  0.00423  0.31651  -0.01357
    -2.12  0.01588  0.31650  -0.01373
    -1.08  0.02762  0.31650  -0.01391
    -0.05  0.03927  0.31651  -0.01400
    -0.00  0.03929  0.31651  -0.01400
     1.15  0.05305  0.31653  -0.01413
     2.29  0.06601  0.31655  -0.01424
     3.44  0.07901  0.31658  -0.01431
     4.58  0.09160  0.31661  -0.01430
     5.73  0.10378  0.31664  -0.01421
     6.88  0.11534  0.31671  -0.01400
     8.02  0.12483  0.31677  -0.01341
    10.65  0.12914  0.31802  -0.01044
    13.27  0.11304  0.32676  -0.00965
    15.89  0.10916  0.33217  -0.01049
    18.52  0.11165  0.33755  -0.01180
    21.14  0.11103  0.34431  -0.01392
    23.76  0.10771  0.34897  -0.01662
    26.39  0.10440  0.35363  -0.01932
    29.01  0.10109  0.35829  -0.02202
    31.63  0.09874  0.36361  -0.02401
    34.26  0.09688  0.36928  -0.02563
    36.88  0.09502  0.37495  -0.02725
    39.51  0.09317  0.38061  -0.02887
    42.13  0.09074  0.38654  -0.03025
    44.75  0.08819  0.39253  -0.03159
    47.38  0.08563  0.39852  -0.03293
    50.00  0.08308  0.40450  -0.03427
    60.00  0.06818  0.42574  -0.03884
    70.00  0.04825  0.44260  -0.04282
    80.00  0.02476  0.45289  -0.04609
    90.00  0.00009  0.45520  -0.04844
   100.00  -0.01718  0.45289  -0.05038
   110.00  -0.03366  0.44260  -0.05074
   120.00  -0.04757  0.42574  -0.04982
   130.00  -0.05803  0.40450  -0.04823
   140.00  -0.06484  0.38158  -0.04692
   150.00  -0.06988  0.35988  -0.04770
   160.00  -0.07777  0.34210  -0.05535
   170.00  -0.03879  0.33046  -0.04943
   180.00  0.00009  0.32640  -0.00009
EOT
