AeroDyn airfoil file.  Compatible with AeroDyn v13.0.
Interpolated thickness: 0.558

  1        Number of airfoil tables in this file
  9990     Reynolds number in millions.  For efficiency, make very large if only one table.
  0        Control setting
  10.745   Stall angle (deg)
  -3.38922 Zero lift angle of attack (deg)
  3.9532   Cn slope for zero lift (dimensionless)
  0.975207 Cn at stall value for positive angle of attack
  -0.8     Cn at stall value for negative angle of attack
  -2.12    Angle of attack for minimum CD (deg)
  0.152554 Minimum CD value
  -180.00  0.00004  0.21094  -0.00004
  -170.00  0.22918  0.23485  0.23259
  -160.00  0.45891  0.30342  -0.08332
  -150.00  0.41238  0.40822  -0.03668
  -140.00  0.38272  0.53611  -0.00417
  -130.00  0.34259  0.67121  0.02729
  -120.00  0.28094  0.79636  0.05852
  -110.00  0.19894  0.89570  0.08749
  -100.00  0.10182  0.95635  0.11121
   -90.00  0.00004  0.96996  0.12680
   -80.00  -0.10173  0.95635  0.13832
   -70.00  -0.19886  0.89570  0.14041
   -60.00  -0.28086  0.79636  0.13500
   -50.00  -0.34251  0.67121  0.12558
   -40.00  -0.38264  0.53611  0.11790
   -30.00  -0.41230  0.40822  0.12250
   -20.00  -0.45766  0.30330  0.16716
   -10.00  -0.18723  0.20809  0.07388
    -4.17  -0.04183  0.15267  -0.07832
    -3.17  0.02447  0.15261  -0.07949
    -2.12  0.09309  0.15255  -0.08042
    -1.08  0.16230  0.15255  -0.08146
    -0.05  0.23093  0.15261  -0.08204
    -0.03  0.23109  0.15261  -0.08205
     1.16  0.31216  0.15274  -0.08279
     2.32  0.38852  0.15284  -0.08343
     3.48  0.46512  0.15304  -0.08387
     4.64  0.53931  0.15320  -0.08376
     5.81  0.61114  0.15342  -0.08324
     6.97  0.67924  0.15378  -0.08199
     8.13  0.73516  0.15418  -0.07856
    10.74  0.76057  0.16155  -0.06106
    13.36  0.66568  0.21303  -0.05640
    15.98  0.64281  0.24489  -0.06135
    18.60  0.65748  0.27663  -0.06904
    21.21  0.65383  0.31648  -0.08157
    23.83  0.63431  0.34394  -0.09748
    26.45  0.61478  0.37140  -0.11340
    29.06  0.59525  0.39886  -0.12931
    31.68  0.58139  0.43023  -0.14102
    34.30  0.57046  0.46362  -0.15056
    36.91  0.55952  0.49702  -0.16010
    39.53  0.54859  0.53041  -0.16963
    42.15  0.53425  0.56537  -0.17781
    44.77  0.51922  0.60065  -0.18571
    47.38  0.50418  0.63593  -0.19360
    50.00  0.48915  0.67121  -0.20150
    60.00  0.40133  0.79636  -0.22843
    70.00  0.28385  0.89570  -0.25187
    80.00  0.14544  0.95635  -0.27112
    90.00  0.00004  0.96996  -0.28496
   100.00  -0.10173  0.95635  -0.29641
   110.00  -0.19886  0.89570  -0.29857
   120.00  -0.28086  0.79636  -0.29310
   130.00  -0.34251  0.67121  -0.28374
   140.00  -0.38264  0.53611  -0.27600
   150.00  -0.41230  0.40822  -0.28060
   160.00  -0.45882  0.30342  -0.32573
   170.00  -0.22910  0.23485  -0.29083
   180.00  0.00004  0.21094  -0.00004
EOT
