AeroDyn airfoil file.  Compatible with AeroDyn v13.0.
Interpolated thickness: 0.601

  1        Number of airfoil tables in this file
  9990     Reynolds number in millions.  For efficiency, make very large if only one table.
  0        Control setting
  10.7333  Stall angle (deg)
  -3.34851 Zero lift angle of attack (deg)
  3.61028  Cn slope for zero lift (dimensionless)
  0.887311 Cn at stall value for positive angle of attack
  -0.8     Cn at stall value for negative angle of attack
  -2.12    Angle of attack for minimum CD (deg)
  0.171762 Minimum CD value
  -180.00  0.00005  0.22447  -0.00005
  -170.00  0.20690  0.24605  0.20995
  -160.00  0.41427  0.30795  -0.07523
  -150.00  0.37227  0.40255  -0.03312
  -140.00  0.34550  0.51800  -0.00378
  -130.00  0.30927  0.63996  0.02463
  -120.00  0.25362  0.75294  0.05282
  -110.00  0.17960  0.84261  0.07896
  -100.00  0.09192  0.89737  0.10039
   -90.00  0.00005  0.90965  0.11445
   -80.00  -0.09183  0.89737  0.12485
   -70.00  -0.17950  0.84261  0.12674
   -60.00  -0.25353  0.75294  0.12186
   -50.00  -0.30918  0.63996  0.11335
   -40.00  -0.34540  0.51800  0.10642
   -30.00  -0.37218  0.40255  0.11057
   -20.00  -0.41313  0.30784  0.15089
   -10.00  -0.16900  0.22190  0.06668
    -4.17  -0.03775  0.17187  -0.07071
    -3.17  0.02210  0.17182  -0.07176
    -2.12  0.08405  0.17176  -0.07260
    -1.08  0.14652  0.17176  -0.07355
    -0.05  0.20847  0.17182  -0.07407
    -0.02  0.20862  0.17182  -0.07407
     1.16  0.28180  0.17193  -0.07475
     2.32  0.35073  0.17202  -0.07532
     3.48  0.41988  0.17220  -0.07572
     4.64  0.48685  0.17235  -0.07562
     5.80  0.55169  0.17254  -0.07515
     6.96  0.61317  0.17287  -0.07402
     8.12  0.66365  0.17323  -0.07092
    10.73  0.68659  0.17988  -0.05513
    13.35  0.60093  0.22635  -0.05092
    15.97  0.58028  0.25512  -0.05539
    18.59  0.59353  0.28377  -0.06233
    21.20  0.59023  0.31974  -0.07364
    23.82  0.57261  0.34453  -0.08801
    26.44  0.55498  0.36932  -0.10237
    29.06  0.53736  0.39410  -0.11674
    31.68  0.52484  0.42242  -0.12731
    34.29  0.51497  0.45257  -0.13592
    36.91  0.50510  0.48272  -0.14453
    39.53  0.49523  0.51286  -0.15314
    42.15  0.48229  0.54442  -0.16052
    44.76  0.46872  0.57627  -0.16765
    47.38  0.45514  0.60811  -0.17478
    50.00  0.44157  0.63996  -0.18191
    60.00  0.36230  0.75294  -0.20622
    70.00  0.25625  0.84261  -0.22737
    80.00  0.13130  0.89737  -0.24475
    90.00  0.00005  0.90965  -0.25725
   100.00  -0.09183  0.89737  -0.26759
   110.00  -0.17950  0.84261  -0.26953
   120.00  -0.25353  0.75294  -0.26460
   130.00  -0.30918  0.63996  -0.25614
   140.00  -0.34540  0.51800  -0.24916
   150.00  -0.37218  0.40255  -0.25331
   160.00  -0.41418  0.30795  -0.29405
   170.00  -0.20680  0.24605  -0.26255
   180.00  0.00005  0.22447  -0.00005
EOT
