AeroDyn airfoil file.  Compatible with AeroDyn v13.0.
Interpolated thickness: 0.52

  1        Number of airfoil tables in this file
  9990     Reynolds number in millions.  For efficiency, make very large if only one table.
  0        Control setting
  10.7553  Stall angle (deg)
  -3.42107 Zero lift angle of attack (deg)
  4.25492  Cn slope for zero lift (dimensionless)
  1.05277  Cn at stall value for positive angle of attack
  -0.8     Cn at stall value for negative angle of attack
  -2.12    Angle of attack for minimum CD (deg)
  0.135579 Minimum CD value
  -180.00  0.00004  0.19899  -0.00004
  -170.00  0.24888  0.22495  0.25259
  -160.00  0.49835  0.29941  -0.09048
  -150.00  0.44783  0.41322  -0.03983
  -140.00  0.41562  0.55211  -0.00452
  -130.00  0.37204  0.69882  0.02965
  -120.00  0.30509  0.83474  0.06356
  -110.00  0.21604  0.94261  0.09502
  -100.00  0.11056  1.00848  0.12078
   -90.00  0.00004  1.02326  0.13771
   -80.00  -0.11049  1.00848  0.15022
   -70.00  -0.21596  0.94261  0.15249
   -60.00  -0.30502  0.83474  0.14662
   -50.00  -0.37196  0.69882  0.13638
   -40.00  -0.41554  0.55211  0.12805
   -30.00  -0.44775  0.41322  0.13304
   -20.00  -0.49702  0.29928  0.18154
   -10.00  -0.20333  0.19589  0.08024
    -4.17  -0.04544  0.13571  -0.08505
    -3.17  0.02656  0.13564  -0.08631
    -2.12  0.10109  0.13558  -0.08732
    -1.08  0.17625  0.13558  -0.08846
    -0.05  0.25077  0.13564  -0.08909
    -0.03  0.25095  0.13564  -0.08909
     1.16  0.33899  0.13578  -0.08990
     2.33  0.42191  0.13589  -0.09060
     3.49  0.50510  0.13611  -0.09107
     4.65  0.58567  0.13628  -0.09095
     5.81  0.66367  0.13652  -0.09038
     6.98  0.73763  0.13692  -0.08903
     8.14  0.79835  0.13735  -0.08530
    10.76  0.82595  0.14535  -0.06630
    13.37  0.72290  0.20125  -0.06124
    15.99  0.69806  0.23586  -0.06661
    18.60  0.71400  0.27033  -0.07497
    21.22  0.71003  0.31360  -0.08857
    23.84  0.68883  0.34342  -0.10585
    26.45  0.66763  0.37324  -0.12314
    29.07  0.64642  0.40306  -0.14042
    31.69  0.63137  0.43713  -0.15314
    34.30  0.61949  0.47339  -0.16349
    36.92  0.60762  0.50966  -0.17385
    39.53  0.59574  0.54592  -0.18421
    42.15  0.58018  0.58389  -0.19309
    44.77  0.56385  0.62220  -0.20166
    47.38  0.54752  0.66051  -0.21024
    50.00  0.53119  0.69882  -0.21882
    60.00  0.43583  0.83474  -0.24806
    70.00  0.30825  0.94261  -0.27351
    80.00  0.15793  1.00848  -0.29442
    90.00  0.00004  1.02326  -0.30945
   100.00  -0.11049  1.00848  -0.32189
   110.00  -0.21596  0.94261  -0.32423
   120.00  -0.30502  0.83474  -0.31829
   130.00  -0.37196  0.69882  -0.30812
   140.00  -0.41554  0.55211  -0.29972
   150.00  -0.44775  0.41322  -0.30471
   160.00  -0.49828  0.29941  -0.35372
   170.00  -0.24881  0.22495  -0.31583
   180.00  0.00004  0.19899  -0.00004
EOT
