AeroDyn airfoil file.  Compatible with AeroDyn v13.0.
Interpolated thickness: 0.994

  1        Number of airfoil tables in this file
  9990     Reynolds number in millions.  For efficiency, make very large if only one table.
  0        Control setting
  10.6266  Stall angle (deg)
  -0.475364 Zero lift angle of attack (deg)
  0.3988   Cn slope for zero lift (dimensionless)
  0.077274 Cn at stall value for positive angle of attack
  -0.8     Cn at stall value for negative angle of attack
  -2.12    Angle of attack for minimum CD (deg)
  0.34732  Minimum CD value
  -180.00  0.00010  0.34811  -0.00010
  -170.00  0.00321  0.34844  0.00306
  -160.00  0.00633  0.34937  -0.00123
  -150.00  0.00570  0.35079  -0.00060
  -140.00  0.00529  0.35253  -0.00016
  -130.00  0.00475  0.35436  0.00027
  -120.00  0.00391  0.35606  0.00070
  -110.00  0.00280  0.35741  0.00109
  -100.00  0.00148  0.35823  0.00141
   -90.00  0.00010  0.35842  0.00162
   -80.00  -0.00128  0.35823  0.00178
   -70.00  -0.00260  0.35741  0.00181
   -60.00  -0.00371  0.35606  0.00173
   -50.00  -0.00455  0.35436  0.00161
   -40.00  -0.00510  0.35253  0.00150
   -30.00  -0.00550  0.35079  0.00156
   -20.00  -0.00611  0.34937  0.00217
   -10.00  -0.00244  0.34807  0.00090
    -4.17  -0.00047  0.34732  -0.00116
    -3.17  0.00043  0.34732  -0.00118
    -2.12  0.00136  0.34732  -0.00119
    -1.08  0.00230  0.34732  -0.00120
    -0.05  0.00323  0.34732  -0.00121
    -0.00  0.00324  0.34732  -0.00121
     1.14  0.00434  0.34732  -0.00122
     2.29  0.00537  0.34732  -0.00123
     3.43  0.00641  0.34733  -0.00124
     4.57  0.00742  0.34733  -0.00124
     5.72  0.00839  0.34733  -0.00123
     6.86  0.00932  0.34734  -0.00121
     8.00  0.01008  0.34734  -0.00117
    10.63  0.01042  0.34744  -0.00093
    13.25  0.00914  0.34814  -0.00086
    15.88  0.00882  0.34857  -0.00093
    18.50  0.00902  0.34900  -0.00104
    21.13  0.00897  0.34954  -0.00121
    23.75  0.00871  0.34992  -0.00142
    26.38  0.00844  0.35029  -0.00164
    29.00  0.00818  0.35066  -0.00185
    31.63  0.00799  0.35109  -0.00201
    34.25  0.00784  0.35154  -0.00214
    36.88  0.00769  0.35200  -0.00227
    39.50  0.00755  0.35245  -0.00240
    42.13  0.00735  0.35292  -0.00251
    44.75  0.00715  0.35340  -0.00262
    47.38  0.00694  0.35388  -0.00273
    50.00  0.00674  0.35436  -0.00283
    60.00  0.00555  0.35606  -0.00320
    70.00  0.00395  0.35741  -0.00352
    80.00  0.00207  0.35823  -0.00378
    90.00  0.00010  0.35842  -0.00397
   100.00  -0.00128  0.35823  -0.00412
   110.00  -0.00260  0.35741  -0.00415
   120.00  -0.00371  0.35606  -0.00408
   130.00  -0.00455  0.35436  -0.00395
   140.00  -0.00510  0.35253  -0.00385
   150.00  -0.00550  0.35079  -0.00391
   160.00  -0.00613  0.34937  -0.00452
   170.00  -0.00301  0.34844  -0.00405
   180.00  0.00010  0.34811  -0.00010
EOT
