AeroDyn airfoil file.  Compatible with AeroDyn v13.0.
Interpolated thickness: 0.604

  1        Number of airfoil tables in this file
  9990     Reynolds number in millions.  For efficiency, make very large if only one table.
  0        Control setting
  10.7325  Stall angle (deg)
  -3.34545 Zero lift angle of attack (deg)
  3.58629  Cn slope for zero lift (dimensionless)
  0.881174 Cn at stall value for positive angle of attack
  -0.8     Cn at stall value for negative angle of attack
  -2.12    Angle of attack for minimum CD (deg)
  0.173103 Minimum CD value
  -180.00  0.00005  0.22542  -0.00005
  -170.00  0.20534  0.24683  0.20837
  -160.00  0.41116  0.30826  -0.07466
  -150.00  0.36947  0.40216  -0.03287
  -140.00  0.34290  0.51674  -0.00375
  -130.00  0.30695  0.63778  0.02444
  -120.00  0.25172  0.74991  0.05242
  -110.00  0.17825  0.83890  0.07837
  -100.00  0.09123  0.89325  0.09963
   -90.00  0.00005  0.90544  0.11359
   -80.00  -0.09114  0.89325  0.12391
   -70.00  -0.17815  0.83890  0.12579
   -60.00  -0.25162  0.74991  0.12094
   -50.00  -0.30685  0.63778  0.11250
   -40.00  -0.34280  0.51674  0.10562
   -30.00  -0.36938  0.40216  0.10974
   -20.00  -0.41002  0.30816  0.14975
   -10.00  -0.16773  0.22286  0.06618
    -4.17  -0.03747  0.17321  -0.07018
    -3.17  0.02193  0.17315  -0.07122
    -2.12  0.08342  0.17310  -0.07206
    -1.08  0.14542  0.17310  -0.07300
    -0.05  0.20691  0.17315  -0.07352
    -0.02  0.20705  0.17315  -0.07352
     1.16  0.27968  0.17327  -0.07419
     2.32  0.34809  0.17336  -0.07476
     3.48  0.41672  0.17354  -0.07515
     4.64  0.48319  0.17369  -0.07505
     5.80  0.54755  0.17388  -0.07458
     6.96  0.60856  0.17421  -0.07347
     8.11  0.65866  0.17456  -0.07039
    10.73  0.68143  0.18116  -0.05472
    13.35  0.59641  0.22728  -0.05054
    15.97  0.57592  0.25583  -0.05497
    18.59  0.58906  0.28427  -0.06186
    21.20  0.58580  0.31997  -0.07309
    23.82  0.56830  0.34457  -0.08735
    26.44  0.55081  0.36917  -0.10161
    29.06  0.53332  0.39377  -0.11586
    31.68  0.52090  0.42188  -0.12636
    34.29  0.51110  0.45180  -0.13490
    36.91  0.50130  0.48172  -0.14345
    39.53  0.49151  0.51164  -0.15199
    42.15  0.47866  0.54296  -0.15932
    44.76  0.46519  0.57456  -0.16639
    47.38  0.45172  0.60617  -0.17347
    50.00  0.43825  0.63778  -0.18054
    60.00  0.35957  0.74991  -0.20467
    70.00  0.25432  0.83890  -0.22566
    80.00  0.13031  0.89325  -0.24291
    90.00  0.00005  0.90544  -0.25531
   100.00  -0.09114  0.89325  -0.26558
   110.00  -0.17815  0.83890  -0.26750
   120.00  -0.25162  0.74991  -0.26261
   130.00  -0.30685  0.63778  -0.25422
   140.00  -0.34280  0.51674  -0.24729
   150.00  -0.36938  0.40216  -0.25140
   160.00  -0.41106  0.30826  -0.29184
   170.00  -0.20525  0.24683  -0.26057
   180.00  0.00005  0.22542  -0.00005
EOT
