AeroDyn airfoil file.  Compatible with AeroDyn v13.0.
Interpolated thickness: 0.706

  1        Number of airfoil tables in this file
  9990     Reynolds number in millions.  For efficiency, make very large if only one table.
  0        Control setting
  10.7048  Stall angle (deg)
  -3.21674 Zero lift angle of attack (deg)
  2.76609  Cn slope for zero lift (dimensionless)
  0.672094 Cn at stall value for positive angle of attack
  -0.8     Cn at stall value for negative angle of attack
  -2.12    Angle of attack for minimum CD (deg)
  0.218667 Minimum CD value
  -180.00  0.00006  0.25751  -0.00006
  -170.00  0.15248  0.27341  0.15468
  -160.00  0.30528  0.31901  -0.05546
  -150.00  0.27433  0.38872  -0.02443
  -140.00  0.25460  0.47379  -0.00281
  -130.00  0.22791  0.56365  0.01812
  -120.00  0.18691  0.64690  0.03889
  -110.00  0.13236  0.71297  0.05816
  -100.00  0.06776  0.75332  0.07394
   -90.00  0.00006  0.76237  0.08431
   -80.00  -0.06764  0.75332  0.09197
   -70.00  -0.13224  0.71297  0.09336
   -60.00  -0.18678  0.64690  0.08976
   -50.00  -0.22779  0.56365  0.08350
   -40.00  -0.25448  0.47379  0.07839
   -30.00  -0.27421  0.38872  0.08145
   -20.00  -0.30438  0.31894  0.11116
   -10.00  -0.12450  0.25561  0.04911
    -4.17  -0.02779  0.21874  -0.05213
    -3.17  0.01631  0.21871  -0.05290
    -2.12  0.06196  0.21867  -0.05352
    -1.08  0.10799  0.21867  -0.05422
    -0.05  0.15364  0.21871  -0.05461
    -0.02  0.15374  0.21871  -0.05461
     1.16  0.20767  0.21879  -0.05510
     2.31  0.25846  0.21886  -0.05553
     3.47  0.30941  0.21899  -0.05582
     4.62  0.35876  0.21910  -0.05575
     5.78  0.40654  0.21924  -0.05540
     6.93  0.45184  0.21949  -0.05457
     8.09  0.48903  0.21975  -0.05229
    10.70  0.50593  0.22465  -0.04065
    13.32  0.44282  0.25889  -0.03755
    15.94  0.42760  0.28009  -0.04084
    18.56  0.43736  0.30120  -0.04595
    21.18  0.43493  0.32770  -0.05429
    23.80  0.42195  0.34597  -0.06487
    26.42  0.40896  0.36423  -0.07546
    29.04  0.39597  0.38250  -0.08605
    31.66  0.38675  0.40336  -0.09384
    34.28  0.37948  0.42558  -0.10018
    36.90  0.37221  0.44779  -0.10652
    39.52  0.36493  0.47000  -0.11287
    42.14  0.35540  0.49326  -0.11831
    44.76  0.34540  0.51672  -0.12356
    47.38  0.33540  0.54019  -0.12881
    50.00  0.32540  0.56365  -0.13406
    60.00  0.26698  0.64690  -0.15197
    70.00  0.18884  0.71297  -0.16756
    80.00  0.09677  0.75332  -0.18037
    90.00  0.00006  0.76237  -0.18958
   100.00  -0.06764  0.75332  -0.19720
   110.00  -0.13224  0.71297  -0.19863
   120.00  -0.18678  0.64690  -0.19499
   130.00  -0.22779  0.56365  -0.18876
   140.00  -0.25448  0.47379  -0.18362
   150.00  -0.27421  0.38872  -0.18667
   160.00  -0.30516  0.31901  -0.21669
   170.00  -0.15235  0.27341  -0.19348
   180.00  0.00006  0.25751  -0.00006
EOT
