AeroDyn airfoil file.  Compatible with AeroDyn v13.0.
Interpolated thickness: 0.807

  1        Number of airfoil tables in this file
  9990     Reynolds number in millions.  For efficiency, make very large if only one table.
  0        Control setting
  10.6774  Stall angle (deg)
  -3.0803  Zero lift angle of attack (deg)
  1.91795  Cn slope for zero lift (dimensionless)
  0.460532 Cn at stall value for positive angle of attack
  -0.8     Cn at stall value for negative angle of attack
  -2.12    Angle of attack for minimum CD (deg)
  0.263785 Minimum CD value
  -180.00  0.00007  0.28928  -0.00007
  -170.00  0.10013  0.29972  0.10150
  -160.00  0.20044  0.32966  -0.03644
  -150.00  0.18012  0.37542  -0.01607
  -140.00  0.16717  0.43126  -0.00188
  -130.00  0.14965  0.49026  0.01186
  -120.00  0.12273  0.54490  0.02550
  -110.00  0.08692  0.58828  0.03814
  -100.00  0.04452  0.61477  0.04851
   -90.00  0.00007  0.62071  0.05531
   -80.00  -0.04437  0.61477  0.06034
   -70.00  -0.08678  0.58828  0.06125
   -60.00  -0.12258  0.54490  0.05889
   -50.00  -0.14950  0.49026  0.05478
   -40.00  -0.16702  0.43126  0.05143
   -30.00  -0.17997  0.37542  0.05343
   -20.00  -0.19978  0.32961  0.07294
   -10.00  -0.08170  0.28804  0.03220
    -4.17  -0.01821  0.26384  -0.03426
    -3.17  0.01074  0.26381  -0.03476
    -2.12  0.04071  0.26378  -0.03517
    -1.08  0.07093  0.26378  -0.03563
    -0.05  0.10089  0.26381  -0.03588
    -0.01  0.10096  0.26381  -0.03588
     1.15  0.13636  0.26387  -0.03621
     2.30  0.16970  0.26391  -0.03649
     3.45  0.20315  0.26400  -0.03668
     4.60  0.23555  0.26407  -0.03663
     5.75  0.26691  0.26416  -0.03640
     6.91  0.29665  0.26432  -0.03586
     8.06  0.32106  0.26450  -0.03436
    10.68  0.33216  0.26771  -0.02672
    13.30  0.29073  0.29019  -0.02468
    15.92  0.28074  0.30411  -0.02684
    18.54  0.28715  0.31796  -0.03020
    21.16  0.28555  0.33536  -0.03567
    23.78  0.27703  0.34735  -0.04262
    26.41  0.26850  0.35934  -0.04957
    29.03  0.25998  0.37133  -0.05652
    31.65  0.25392  0.38503  -0.06163
    34.27  0.24915  0.39961  -0.06580
    36.89  0.24437  0.41420  -0.06996
    39.51  0.23960  0.42878  -0.07413
    42.14  0.23334  0.44404  -0.07770
    44.76  0.22677  0.45945  -0.08115
    47.38  0.22021  0.47485  -0.08459
    50.00  0.21364  0.49026  -0.08804
    60.00  0.17530  0.54490  -0.09980
    70.00  0.12400  0.58828  -0.11003
    80.00  0.06356  0.61477  -0.11844
    90.00  0.00007  0.62071  -0.12448
   100.00  -0.04437  0.61477  -0.12949
   110.00  -0.08678  0.58828  -0.13043
   120.00  -0.12258  0.54490  -0.12804
   130.00  -0.14950  0.49026  -0.12395
   140.00  -0.16702  0.43126  -0.12057
   150.00  -0.17997  0.37542  -0.12258
   160.00  -0.20029  0.32966  -0.14229
   170.00  -0.09998  0.29972  -0.12705
   180.00  0.00007  0.28928  -0.00007
EOT
