AeroDyn airfoil file.  Compatible with AeroDyn v13.0.
Interpolated thickness: 0.342

  1        Number of airfoil tables in this file
  9990     Reynolds number in millions.  For efficiency, make very large if only one table.
  0        Control setting
  10.8036  Stall angle (deg)
  -3.53786 Zero lift angle of attack (deg)
  5.65169  Cn slope for zero lift (dimensionless)
  1.41465  Cn at stall value for positive angle of attack
  -0.8     Cn at stall value for negative angle of attack
  -2.12    Angle of attack for minimum CD (deg)
  0.0560645 Minimum CD value
  -180.00  0.00001  0.14299  -0.00001
  -170.00  0.34113  0.17857  0.34630
  -160.00  0.68312  0.28065  -0.12399
  -150.00  0.61386  0.43667  -0.05456
  -140.00  0.56970  0.62705  -0.00616
  -130.00  0.50996  0.82818  0.04068
  -120.00  0.41819  1.01449  0.08717
  -110.00  0.29611  1.16237  0.13029
  -100.00  0.15153  1.25267  0.16561
   -90.00  0.00001  1.27293  0.18882
   -80.00  -0.15150  1.25267  0.20596
   -70.00  -0.29609  1.16237  0.20907
   -60.00  -0.41816  1.01449  0.20102
   -50.00  -0.50994  0.82818  0.18700
   -40.00  -0.56968  0.62705  0.17557
   -30.00  -0.61383  0.43667  0.18241
   -20.00  -0.68136  0.28048  0.24890
   -10.00  -0.27877  0.13875  0.11003
    -4.17  -0.06232  0.05624  -0.11655
    -3.17  0.03638  0.05615  -0.11828
    -2.12  0.13854  0.05606  -0.11967
    -1.08  0.24157  0.05606  -0.12122
    -0.05  0.34373  0.05615  -0.12209
    -0.04  0.34397  0.05615  -0.12209
     1.17  0.46466  0.05634  -0.12320
     2.34  0.57833  0.05649  -0.12415
     3.51  0.69237  0.05679  -0.12480
     4.68  0.80282  0.05703  -0.12464
     5.85  0.90975  0.05735  -0.12386
     7.02  1.01113  0.05790  -0.12201
     8.19  1.09437  0.05849  -0.11690
    10.80  1.13220  0.06946  -0.09085
    13.42  0.99094  0.14609  -0.08391
    16.03  0.95689  0.19353  -0.09128
    18.64  0.97873  0.24078  -0.10273
    21.26  0.97330  0.30010  -0.12138
    23.87  0.94423  0.34098  -0.14507
    26.48  0.91517  0.38185  -0.16876
    29.10  0.88610  0.42273  -0.19246
    31.71  0.86546  0.46944  -0.20989
    34.32  0.84918  0.51915  -0.22409
    36.93  0.83291  0.56887  -0.23828
    39.55  0.81663  0.61858  -0.25248
    42.16  0.79529  0.67062  -0.26465
    44.77  0.77291  0.72314  -0.27641
    47.39  0.75052  0.77566  -0.28817
    50.00  0.72814  0.82818  -0.29992
    60.00  0.59741  1.01449  -0.34001
    70.00  0.42252  1.16237  -0.37490
    80.00  0.21646  1.25267  -0.40356
    90.00  0.00001  1.27293  -0.42416
   100.00  -0.15150  1.25267  -0.44122
   110.00  -0.29609  1.16237  -0.44442
   120.00  -0.41816  1.01449  -0.43628
   130.00  -0.50994  0.82818  -0.42235
   140.00  -0.56968  0.62705  -0.41083
   150.00  -0.61383  0.43667  -0.41767
   160.00  -0.68309  0.28065  -0.48486
   170.00  -0.34111  0.17857  -0.43291
   180.00  0.00001  0.14299  -0.00001
EOT
