AeroDyn airfoil file.  Compatible with AeroDyn v13.0.
Interpolated thickness: 0.275

  1        Number of airfoil tables in this file
  9990     Reynolds number in millions.  For efficiency, make very large if only one table.
  0        Control setting
  10.8218  Stall angle (deg)
  -3.57309 Zero lift angle of attack (deg)
  6.1705   Cn slope for zero lift (dimensionless)
  1.55026  Cn at stall value for positive angle of attack
  -0.8     Cn at stall value for negative angle of attack
  -2.12    Angle of attack for minimum CD (deg)
  0.0261349 Minimum CD value
  -180.00  0.00000  0.12191  -0.00000
  -170.00  0.37586  0.16112  0.38157
  -160.00  0.75267  0.27359  -0.13661
  -150.00  0.67635  0.44549  -0.06010
  -140.00  0.62770  0.65526  -0.00678
  -130.00  0.56188  0.87687  0.04483
  -120.00  0.46076  1.08215  0.09606
  -110.00  0.32625  1.24509  0.14356
  -100.00  0.16695  1.34459  0.18249
   -90.00  0.00000  1.36691  0.20805
   -80.00  -0.16694  1.34459  0.22694
   -70.00  -0.32625  1.24509  0.23037
   -60.00  -0.46075  1.08215  0.22150
   -50.00  -0.56187  0.87687  0.20605
   -40.00  -0.62769  0.65526  0.19346
   -30.00  -0.67634  0.44549  0.20099
   -20.00  -0.75075  0.27340  0.27426
   -10.00  -0.30717  0.11724  0.12124
    -4.17  -0.06868  0.02633  -0.12841
    -3.17  0.04007  0.02623  -0.13031
    -2.12  0.15264  0.02613  -0.13184
    -1.08  0.26616  0.02613  -0.13356
    -0.05  0.37872  0.02623  -0.13451
    -0.05  0.37898  0.02623  -0.13451
     1.17  0.51196  0.02644  -0.13574
     2.35  0.63721  0.02661  -0.13679
     3.52  0.76286  0.02693  -0.13750
     4.69  0.88455  0.02720  -0.13732
     5.86  1.00237  0.02756  -0.13647
     7.04  1.11407  0.02815  -0.13442
     8.21  1.20579  0.02881  -0.12879
    10.82  1.24748  0.04089  -0.10009
    13.43  1.09183  0.12533  -0.09245
    16.05  1.05432  0.17760  -0.10056
    18.66  1.07838  0.22966  -0.11318
    21.27  1.07240  0.29501  -0.13373
    23.88  1.04037  0.34006  -0.15983
    26.49  1.00834  0.38510  -0.18594
    29.10  0.97632  0.43014  -0.21204
    31.72  0.95358  0.48160  -0.23125
    34.33  0.93564  0.53637  -0.24689
    36.94  0.91771  0.59115  -0.26254
    39.55  0.89977  0.64593  -0.27818
    42.16  0.87626  0.70327  -0.29159
    44.78  0.85160  0.76113  -0.30455
    47.39  0.82694  0.81900  -0.31750
    50.00  0.80227  0.87687  -0.33045
    60.00  0.65823  1.08215  -0.37462
    70.00  0.46553  1.24509  -0.41306
    80.00  0.23849  1.34459  -0.44464
    90.00  0.00000  1.36691  -0.46734
   100.00  -0.16694  1.34459  -0.48614
   110.00  -0.32625  1.24509  -0.48967
   120.00  -0.46075  1.08215  -0.48070
   130.00  -0.56187  0.87687  -0.46534
   140.00  -0.62769  0.65526  -0.45265
   150.00  -0.67634  0.44549  -0.46019
   160.00  -0.75266  0.27359  -0.53422
   170.00  -0.37585  0.16112  -0.47698
   180.00  0.00000  0.12191  -0.00000
EOT
