AeroDyn airfoil file.  Compatible with AeroDyn v13.0.
Interpolated thickness: 0.571

  1        Number of airfoil tables in this file
  9990     Reynolds number in millions.  For efficiency, make very large if only one table.
  0        Control setting
  10.7414  Stall angle (deg)
  -3.37749 Zero lift angle of attack (deg)
  3.8497   Cn slope for zero lift (dimensionless)
  0.948649 Cn at stall value for positive angle of attack
  -0.8     Cn at stall value for negative angle of attack
  -2.12    Angle of attack for minimum CD (deg)
  0.158361 Minimum CD value
  -180.00  0.00004  0.21503  -0.00004
  -170.00  0.22245  0.23823  0.22575
  -160.00  0.44541  0.30479  -0.08088
  -150.00  0.40026  0.40650  -0.03561
  -140.00  0.37147  0.53063  -0.00405
  -130.00  0.33252  0.66176  0.02649
  -120.00  0.27268  0.78323  0.05680
  -110.00  0.19309  0.87965  0.08491
  -100.00  0.09883  0.93852  0.10794
   -90.00  0.00004  0.95173  0.12307
   -80.00  -0.09874  0.93852  0.13424
   -70.00  -0.19301  0.87965  0.13628
   -60.00  -0.27260  0.78323  0.13103
   -50.00  -0.33243  0.66176  0.12188
   -40.00  -0.37138  0.53063  0.11443
   -30.00  -0.40017  0.40650  0.11889
   -20.00  -0.44420  0.30467  0.16224
   -10.00  -0.18172  0.21227  0.07170
    -4.17  -0.04060  0.15847  -0.07602
    -3.17  0.02375  0.15842  -0.07715
    -2.12  0.09036  0.15836  -0.07805
    -1.08  0.15753  0.15836  -0.07907
    -0.05  0.22414  0.15842  -0.07963
    -0.03  0.22429  0.15842  -0.07964
     1.16  0.30298  0.15854  -0.08036
     2.32  0.37709  0.15864  -0.08098
     3.48  0.45144  0.15883  -0.08140
     4.64  0.52345  0.15899  -0.08130
     5.80  0.59317  0.15920  -0.08079
     6.96  0.65927  0.15956  -0.07958
     8.12  0.71354  0.15994  -0.07625
    10.74  0.73820  0.16709  -0.05927
    13.36  0.64610  0.21705  -0.05474
    15.98  0.62391  0.24798  -0.05955
    18.59  0.63814  0.27879  -0.06701
    21.21  0.63460  0.31746  -0.07917
    23.83  0.61565  0.34412  -0.09462
    26.44  0.59670  0.37077  -0.11006
    29.06  0.57775  0.39742  -0.12551
    31.68  0.56430  0.42787  -0.13688
    34.30  0.55368  0.46028  -0.14613
    36.91  0.54307  0.49270  -0.15539
    39.53  0.53246  0.52511  -0.16465
    42.15  0.51854  0.55904  -0.17258
    44.77  0.50395  0.59328  -0.18025
    47.38  0.48936  0.62752  -0.18791
    50.00  0.47477  0.66176  -0.19558
    60.00  0.38953  0.78323  -0.22171
    70.00  0.27551  0.87965  -0.24446
    80.00  0.14116  0.93852  -0.26314
    90.00  0.00004  0.95173  -0.27658
   100.00  -0.09874  0.93852  -0.28770
   110.00  -0.19301  0.87965  -0.28979
   120.00  -0.27260  0.78323  -0.28448
   130.00  -0.33243  0.66176  -0.27539
   140.00  -0.37138  0.53063  -0.26789
   150.00  -0.40017  0.40650  -0.27235
   160.00  -0.44533  0.30479  -0.31615
   170.00  -0.22236  0.23823  -0.28228
   180.00  0.00004  0.21503  -0.00004
EOT
