AeroDyn airfoil file.  Compatible with AeroDyn v13.0.
Interpolated thickness: 0.418

  1        Number of airfoil tables in this file
  9990     Reynolds number in millions.  For efficiency, make very large if only one table.
  0        Control setting
  10.7829  Stall angle (deg)
  -3.49306 Zero lift angle of attack (deg)
  5.05862  Cn slope for zero lift (dimensionless)
  1.26042  Cn at stall value for positive angle of attack
  -0.8     Cn at stall value for negative angle of attack
  -2.12    Angle of attack for minimum CD (deg)
  0.0900145 Minimum CD value
  -180.00  0.00002  0.16690  -0.00002
  -170.00  0.30174  0.19837  0.30629
  -160.00  0.60423  0.28866  -0.10968
  -150.00  0.54297  0.42666  -0.04827
  -140.00  0.50391  0.59505  -0.00546
  -130.00  0.45107  0.77295  0.03597
  -120.00  0.36990  0.93774  0.07709
  -110.00  0.26192  1.06854  0.11523
  -100.00  0.13404  1.14841  0.14647
   -90.00  0.00002  1.16633  0.16700
   -80.00  -0.13399  1.14841  0.18216
   -70.00  -0.26188  1.06854  0.18491
   -60.00  -0.36985  0.93774  0.17779
   -50.00  -0.45103  0.77295  0.16539
   -40.00  -0.50387  0.59505  0.15528
   -30.00  -0.54292  0.42666  0.16133
   -20.00  -0.60265  0.28851  0.22014
   -10.00  -0.24656  0.16315  0.09731
    -4.17  -0.05511  0.09017  -0.10310
    -3.17  0.03219  0.09009  -0.10463
    -2.12  0.12255  0.09001  -0.10586
    -1.08  0.21368  0.09001  -0.10723
    -0.05  0.30404  0.09009  -0.10800
    -0.04  0.30425  0.09009  -0.10800
     1.17  0.41100  0.09026  -0.10899
     2.33  0.51154  0.09039  -0.10983
     3.50  0.61241  0.09065  -0.11040
     4.67  0.71010  0.09087  -0.11026
     5.83  0.80468  0.09115  -0.10957
     7.00  0.89435  0.09163  -0.10793
     8.17  0.96798  0.09216  -0.10341
    10.78  1.00144  0.10186  -0.08037
    13.40  0.87650  0.16964  -0.07423
    16.01  0.84638  0.21160  -0.08075
    18.63  0.86570  0.25340  -0.09087
    21.24  0.86090  0.30586  -0.10737
    23.86  0.83519  0.34202  -0.12833
    26.47  0.80948  0.37817  -0.14928
    29.08  0.78377  0.41433  -0.17024
    31.70  0.76551  0.45564  -0.18566
    34.31  0.75111  0.49961  -0.19822
    36.93  0.73672  0.54359  -0.21077
    39.54  0.72232  0.58756  -0.22333
    42.16  0.70344  0.63359  -0.23410
    44.77  0.68365  0.68004  -0.24450
    47.39  0.66385  0.72649  -0.25489
    50.00  0.64405  0.77295  -0.26529
    60.00  0.52842  0.93774  -0.30075
    70.00  0.37373  1.06854  -0.33161
    80.00  0.19147  1.14841  -0.35696
    90.00  0.00002  1.16633  -0.37518
   100.00  -0.13399  1.14841  -0.39027
   110.00  -0.26188  1.06854  -0.39310
   120.00  -0.36985  0.93774  -0.38590
   130.00  -0.45103  0.77295  -0.37358
   140.00  -0.50387  0.59505  -0.36339
   150.00  -0.54292  0.42666  -0.36944
   160.00  -0.60418  0.28866  -0.42887
   170.00  -0.30170  0.19837  -0.38292
   180.00  0.00002  0.16690  -0.00002
EOT
