AeroDyn airfoil file.  Compatible with AeroDyn v13.0.
Interpolated thickness: 0.974

  1        Number of airfoil tables in this file
  9990     Reynolds number in millions.  For efficiency, make very large if only one table.
  0        Control setting
  10.6321  Stall angle (deg)
  -1.42471 Zero lift angle of attack (deg)
  0.562321 Cn slope for zero lift (dimensionless)
  0.118329 Cn at stall value for positive angle of attack
  -0.8     Cn at stall value for negative angle of attack
  -2.12    Angle of attack for minimum CD (deg)
  0.338386 Minimum CD value
  -180.00  0.00010  0.34182  -0.00010
  -170.00  0.01358  0.34323  0.01359
  -160.00  0.02709  0.34726  -0.00500
  -150.00  0.02435  0.35342  -0.00225
  -140.00  0.02261  0.36095  -0.00034
  -130.00  0.02025  0.36889  0.00151
  -120.00  0.01662  0.37626  0.00335
  -110.00  0.01180  0.38210  0.00505
  -100.00  0.00608  0.38567  0.00645
   -90.00  0.00010  0.38647  0.00736
   -80.00  -0.00589  0.38567  0.00804
   -70.00  -0.01160  0.38210  0.00817
   -60.00  -0.01643  0.37626  0.00785
   -50.00  -0.02005  0.36889  0.00729
   -40.00  -0.02241  0.36095  0.00684
   -30.00  -0.02416  0.35342  0.00711
   -20.00  -0.02683  0.34725  0.00974
   -10.00  -0.01092  0.34165  0.00425
    -4.17  -0.00237  0.33839  -0.00470
    -3.17  0.00153  0.33839  -0.00477
    -2.12  0.00557  0.33839  -0.00482
    -1.08  0.00964  0.33839  -0.00489
    -0.05  0.01368  0.33839  -0.00492
    -0.00  0.01369  0.33839  -0.00492
     1.14  0.01846  0.33840  -0.00496
     2.29  0.02295  0.33840  -0.00500
     3.43  0.02745  0.33841  -0.00503
     4.58  0.03182  0.33842  -0.00502
     5.72  0.03604  0.33844  -0.00499
     6.86  0.04005  0.33846  -0.00492
     8.01  0.04334  0.33848  -0.00471
    10.63  0.04483  0.33891  -0.00369
    13.26  0.03925  0.34194  -0.00341
    15.88  0.03791  0.34382  -0.00370
    18.51  0.03877  0.34568  -0.00416
    21.13  0.03855  0.34803  -0.00489
    23.75  0.03741  0.34964  -0.00583
    26.38  0.03626  0.35126  -0.00676
    29.00  0.03511  0.35287  -0.00770
    31.63  0.03429  0.35472  -0.00839
    34.25  0.03365  0.35668  -0.00895
    36.88  0.03301  0.35865  -0.00951
    39.50  0.03236  0.36061  -0.01007
    42.13  0.03152  0.36267  -0.01055
    44.75  0.03064  0.36474  -0.01102
    47.38  0.02975  0.36682  -0.01148
    50.00  0.02887  0.36889  -0.01195
    60.00  0.02370  0.37626  -0.01353
    70.00  0.01679  0.38210  -0.01491
    80.00  0.00865  0.38567  -0.01604
    90.00  0.00010  0.38647  -0.01686
   100.00  -0.00589  0.38567  -0.01753
   110.00  -0.01160  0.38210  -0.01766
   120.00  -0.01643  0.37626  -0.01734
   130.00  -0.02005  0.36889  -0.01678
   140.00  -0.02241  0.36095  -0.01633
   150.00  -0.02416  0.35342  -0.01660
   160.00  -0.02690  0.34726  -0.01925
   170.00  -0.01338  0.34323  -0.01720
   180.00  0.00010  0.34182  -0.00010
EOT
