AeroDyn airfoil file.  Compatible with AeroDyn v13.0.
Interpolated thickness: 0.528

  1        Number of airfoil tables in this file
  9990     Reynolds number in millions.  For efficiency, make very large if only one table.
  0        Control setting
  10.7531  Stall angle (deg)
  -3.41464 Zero lift angle of attack (deg)
  4.1915   Cn slope for zero lift (dimensionless)
  1.03645  Cn at stall value for positive angle of attack
  -0.8     Cn at stall value for negative angle of attack
  -2.12    Angle of attack for minimum CD (deg)
  0.139153 Minimum CD value
  -180.00  0.00004  0.20151  -0.00004
  -170.00  0.24473  0.22703  0.24838
  -160.00  0.49005  0.30025  -0.08897
  -150.00  0.44036  0.41217  -0.03916
  -140.00  0.40869  0.54874  -0.00445
  -130.00  0.36584  0.69301  0.02915
  -120.00  0.30001  0.82666  0.06250
  -110.00  0.21244  0.93273  0.09343
  -100.00  0.10872  0.99751  0.11877
   -90.00  0.00004  1.01204  0.13541
   -80.00  -0.10865  0.99751  0.14771
   -70.00  -0.21236  0.93273  0.14995
   -60.00  -0.29993  0.82666  0.14417
   -50.00  -0.36576  0.69301  0.13411
   -40.00  -0.40861  0.54874  0.12591
   -30.00  -0.44029  0.41217  0.13082
   -20.00  -0.48873  0.30013  0.17851
   -10.00  -0.19994  0.19846  0.07890
    -4.17  -0.04468  0.13928  -0.08363
    -3.17  0.02612  0.13921  -0.08487
    -2.12  0.09941  0.13915  -0.08587
    -1.08  0.17331  0.13915  -0.08699
    -0.05  0.24660  0.13921  -0.08761
    -0.03  0.24677  0.13922  -0.08761
     1.16  0.33334  0.13935  -0.08841
     2.32  0.41488  0.13946  -0.08909
     3.49  0.49668  0.13967  -0.08955
     4.65  0.57591  0.13985  -0.08944
     5.81  0.65261  0.14008  -0.08888
     6.97  0.72534  0.14047  -0.08755
     8.14  0.78505  0.14089  -0.08388
    10.75  0.81219  0.14876  -0.06520
    13.37  0.71086  0.20373  -0.06022
    15.99  0.68643  0.23776  -0.06550
    18.60  0.70210  0.27166  -0.07372
    21.22  0.69820  0.31420  -0.08710
    23.84  0.67735  0.34353  -0.10409
    26.45  0.65650  0.37285  -0.12109
    29.07  0.63565  0.40217  -0.13808
    31.68  0.62085  0.43567  -0.15059
    34.30  0.60917  0.47134  -0.16077
    36.92  0.59749  0.50700  -0.17096
    39.53  0.58582  0.54266  -0.18114
    42.15  0.57051  0.57999  -0.18987
    44.77  0.55445  0.61766  -0.19830
    47.38  0.53840  0.65533  -0.20674
    50.00  0.52234  0.69301  -0.21517
    60.00  0.42856  0.82666  -0.24393
    70.00  0.30311  0.93273  -0.26895
    80.00  0.15530  0.99751  -0.28951
    90.00  0.00004  1.01204  -0.30429
   100.00  -0.10865  0.99751  -0.31653
   110.00  -0.21236  0.93273  -0.31882
   120.00  -0.29993  0.82666  -0.31299
   130.00  -0.36576  0.69301  -0.30299
   140.00  -0.40861  0.54874  -0.29473
   150.00  -0.44029  0.41217  -0.29963
   160.00  -0.48997  0.30025  -0.34783
   170.00  -0.24466  0.22703  -0.31056
   180.00  0.00004  0.20151  -0.00004
EOT
