AeroDyn airfoil file.  Compatible with AeroDyn v13.0.
Interpolated thickness: 0.794

  1        Number of airfoil tables in this file
  9990     Reynolds number in millions.  For efficiency, make very large if only one table.
  0        Control setting
  10.6809  Stall angle (deg)
  -3.03721 Zero lift angle of attack (deg)
  2.05104  Cn slope for zero lift (dimensionless)
  0.491074 Cn at stall value for positive angle of attack
  -0.8     Cn at stall value for negative angle of attack
  -2.12    Angle of attack for minimum CD (deg)
  0.257978 Minimum CD value
  -180.00  0.00007  0.28519  -0.00007
  -170.00  0.10687  0.29633  0.10835
  -160.00  0.21393  0.32829  -0.03889
  -150.00  0.19225  0.37713  -0.01715
  -140.00  0.17843  0.43674  -0.00200
  -130.00  0.15972  0.49970  0.01267
  -120.00  0.13099  0.55803  0.02722
  -110.00  0.09277  0.60433  0.04072
  -100.00  0.04751  0.63260  0.05178
   -90.00  0.00007  0.63894  0.05904
   -80.00  -0.04736  0.63260  0.06441
   -70.00  -0.09263  0.60433  0.06539
   -60.00  -0.13085  0.55803  0.06287
   -50.00  -0.15958  0.49970  0.05847
   -40.00  -0.17828  0.43674  0.05490
   -30.00  -0.19210  0.37713  0.05704
   -20.00  -0.21325  0.32823  0.07785
   -10.00  -0.08721  0.28386  0.03438
    -4.17  -0.01944  0.25803  -0.03656
    -3.17  0.01146  0.25800  -0.03710
    -2.12  0.04344  0.25798  -0.03753
    -1.08  0.07570  0.25798  -0.03802
    -0.05  0.10768  0.25800  -0.03829
    -0.01  0.10776  0.25800  -0.03829
     1.15  0.14554  0.25806  -0.03864
     2.30  0.18113  0.25811  -0.03894
     3.45  0.21683  0.25820  -0.03914
     4.61  0.25141  0.25828  -0.03909
     5.76  0.28488  0.25838  -0.03885
     6.91  0.31662  0.25855  -0.03827
     8.06  0.34268  0.25874  -0.03666
    10.68  0.35453  0.26217  -0.02851
    13.30  0.31030  0.28616  -0.02634
    15.92  0.29964  0.30101  -0.02864
    18.54  0.30648  0.31581  -0.03223
    21.17  0.30478  0.33438  -0.03807
    23.79  0.29568  0.34717  -0.04549
    26.41  0.28658  0.35997  -0.05290
    29.03  0.27748  0.37277  -0.06032
    31.65  0.27102  0.38739  -0.06578
    34.27  0.26592  0.40296  -0.07022
    36.89  0.26083  0.41852  -0.07467
    39.51  0.25573  0.43408  -0.07911
    42.14  0.24905  0.45038  -0.08292
    44.76  0.24204  0.46682  -0.08660
    47.38  0.23504  0.48326  -0.09029
    50.00  0.22803  0.49970  -0.09397
    60.00  0.18710  0.55803  -0.10652
    70.00  0.13235  0.60433  -0.11744
    80.00  0.06784  0.63260  -0.12641
    90.00  0.00007  0.63894  -0.13286
   100.00  -0.04736  0.63260  -0.13820
   110.00  -0.09263  0.60433  -0.13920
   120.00  -0.13085  0.55803  -0.13666
   130.00  -0.15958  0.49970  -0.13229
   140.00  -0.17828  0.43674  -0.12869
   150.00  -0.19210  0.37713  -0.13083
   160.00  -0.21379  0.32829  -0.15186
   170.00  -0.10672  0.29633  -0.13560
   180.00  0.00007  0.28519  -0.00007
EOT
