AeroDyn airfoil file.  Compatible with AeroDyn v13.0.
Interpolated thickness: 0.305

  1        Number of airfoil tables in this file
  9990     Reynolds number in millions.  For efficiency, make very large if only one table.
  0        Control setting
  10.8136  Stall angle (deg)
  -3.55773 Zero lift angle of attack (deg)
  5.93866  Cn slope for zero lift (dimensionless)
  1.48958  Cn at stall value for positive angle of attack
  -0.8     Cn at stall value for negative angle of attack
  -2.12    Angle of attack for minimum CD (deg)
  0.0395362 Minimum CD value
  -180.00  0.00001  0.13135  -0.00001
  -170.00  0.36031  0.16893  0.36578
  -160.00  0.72153  0.27675  -0.13096
  -150.00  0.64837  0.44154  -0.05762
  -140.00  0.60173  0.64263  -0.00650
  -130.00  0.53863  0.85506  0.04297
  -120.00  0.44170  1.05186  0.09208
  -110.00  0.31276  1.20805  0.13762
  -100.00  0.16004  1.30343  0.17493
   -90.00  0.00001  1.32483  0.19944
   -80.00  -0.16002  1.30343  0.21754
   -70.00  -0.31274  1.20805  0.22084
   -60.00  -0.44168  1.05186  0.21233
   -50.00  -0.53862  0.85506  0.19752
   -40.00  -0.60172  0.64263  0.18545
   -30.00  -0.64835  0.44154  0.19267
   -20.00  -0.71968  0.27657  0.26290
   -10.00  -0.29445  0.12687  0.11622
    -4.17  -0.06583  0.03972  -0.12310
    -3.17  0.03842  0.03963  -0.12493
    -2.12  0.14632  0.03954  -0.12639
    -1.08  0.25515  0.03954  -0.12803
    -0.05  0.36305  0.03963  -0.12895
    -0.04  0.36331  0.03963  -0.12895
     1.17  0.49078  0.03983  -0.13013
     2.34  0.61084  0.03999  -0.13113
     3.51  0.73129  0.04030  -0.13182
     4.69  0.84796  0.04056  -0.13164
     5.86  0.96090  0.04090  -0.13082
     7.03  1.06798  0.04147  -0.12887
     8.20  1.15590  0.04210  -0.12346
    10.81  1.19586  0.05368  -0.09595
    13.43  1.04666  0.13462  -0.08862
    16.04  1.01069  0.18473  -0.09640
    18.65  1.03376  0.23464  -0.10850
    21.26  1.02803  0.29729  -0.12820
    23.88  0.99732  0.34047  -0.15322
    26.49  0.96662  0.38365  -0.17825
    29.10  0.93592  0.42682  -0.20327
    31.71  0.91412  0.47615  -0.22169
    34.33  0.89693  0.52866  -0.23668
    36.94  0.87974  0.58117  -0.25168
    39.55  0.86254  0.63368  -0.26667
    42.16  0.84000  0.68865  -0.27953
    44.78  0.81636  0.74412  -0.29195
    47.39  0.79272  0.79959  -0.30437
    50.00  0.76908  0.85506  -0.31678
    60.00  0.63100  1.05186  -0.35912
    70.00  0.44627  1.20805  -0.39598
    80.00  0.22863  1.30343  -0.42624
    90.00  0.00001  1.32483  -0.44801
   100.00  -0.16002  1.30343  -0.46602
   110.00  -0.31274  1.20805  -0.46941
   120.00  -0.44168  1.05186  -0.46081
   130.00  -0.53862  0.85506  -0.44609
   140.00  -0.60172  0.64263  -0.43393
   150.00  -0.64835  0.44154  -0.44115
   160.00  -0.72151  0.27675  -0.51211
   170.00  -0.36029  0.16893  -0.45725
   180.00  0.00001  0.13135  -0.00001
EOT
