AeroDyn airfoil file.  Compatible with AeroDyn v13.0.
Interpolated thickness: 0.719

  1        Number of airfoil tables in this file
  9990     Reynolds number in millions.  For efficiency, make very large if only one table.
  0        Control setting
  10.7013  Stall angle (deg)
  -3.19563 Zero lift angle of attack (deg)
  2.66089  Cn slope for zero lift (dimensionless)
  0.64539  Cn at stall value for positive angle of attack
  -0.8     Cn at stall value for negative angle of attack
  -2.12    Angle of attack for minimum CD (deg)
  0.224474 Minimum CD value
  -180.00  0.00006  0.26160  -0.00006
  -170.00  0.14574  0.27679  0.14783
  -160.00  0.29179  0.32038  -0.05301
  -150.00  0.26221  0.38701  -0.02336
  -140.00  0.24335  0.46832  -0.00269
  -130.00  0.21784  0.55421  0.01731
  -120.00  0.17865  0.63377  0.03717
  -110.00  0.12651  0.69692  0.05558
  -100.00  0.06477  0.73549  0.07067
   -90.00  0.00006  0.74414  0.08058
   -80.00  -0.06464  0.73549  0.08790
   -70.00  -0.12639  0.69692  0.08923
   -60.00  -0.17852  0.63377  0.08579
   -50.00  -0.21771  0.55421  0.07980
   -40.00  -0.24322  0.46832  0.07492
   -30.00  -0.26208  0.38701  0.07784
   -20.00  -0.29092  0.32031  0.10624
   -10.00  -0.11899  0.25978  0.04693
    -4.17  -0.02656  0.22455  -0.04983
    -3.17  0.01559  0.22451  -0.05057
    -2.12  0.05922  0.22447  -0.05116
    -1.08  0.10322  0.22447  -0.05183
    -0.05  0.14685  0.22451  -0.05220
    -0.02  0.14695  0.22451  -0.05220
     1.15  0.19849  0.22459  -0.05267
     2.31  0.24703  0.22466  -0.05308
     3.46  0.29573  0.22478  -0.05335
     4.62  0.34290  0.22489  -0.05329
     5.77  0.38857  0.22502  -0.05295
     6.93  0.43186  0.22526  -0.05216
     8.08  0.46741  0.22551  -0.04998
    10.70  0.48357  0.23019  -0.03886
    13.32  0.42324  0.26292  -0.03589
    15.94  0.40870  0.28318  -0.03904
    18.56  0.41803  0.30336  -0.04393
    21.18  0.41571  0.32869  -0.05189
    23.80  0.40329  0.34615  -0.06201
    26.42  0.39088  0.36360  -0.07213
    29.04  0.37847  0.38106  -0.08225
    31.66  0.36965  0.40101  -0.08969
    34.28  0.36270  0.42224  -0.09575
    36.90  0.35575  0.44347  -0.10182
    39.52  0.34880  0.46470  -0.10788
    42.14  0.33969  0.48692  -0.11308
    44.76  0.33013  0.50935  -0.11810
    47.38  0.32057  0.53178  -0.12312
    50.00  0.31101  0.55421  -0.12814
    60.00  0.25518  0.63377  -0.14526
    70.00  0.18049  0.69692  -0.16016
    80.00  0.09250  0.73549  -0.17240
    90.00  0.00006  0.74414  -0.18120
   100.00  -0.06464  0.73549  -0.18848
   110.00  -0.12639  0.69692  -0.18985
   120.00  -0.17852  0.63377  -0.18637
   130.00  -0.21771  0.55421  -0.18042
   140.00  -0.24322  0.46832  -0.17550
   150.00  -0.26208  0.38701  -0.17842
   160.00  -0.29166  0.32038  -0.20712
   170.00  -0.14561  0.27679  -0.18493
   180.00  0.00006  0.26160  -0.00006
EOT
