AeroDyn airfoil file.  Compatible with AeroDyn v13.0.
Interpolated thickness: 0.226

  1        Number of airfoil tables in this file
  9990     Reynolds number in millions.  For efficiency, make very large if only one table.
  0        Control setting
  9.5148   Stall angle (deg)
  -3.91438 Zero lift angle of attack (deg)
  6.44325  Cn slope for zero lift (dimensionless)
  1.51019  Cn at stall value for positive angle of attack
  -0.8     Cn at stall value for negative angle of attack
  -2.02    Angle of attack for minimum CD (deg)
  0.00976  Minimum CD value
  -180.00  0.00000  0.12692  0.00000
  -170.00  0.39540  0.16776  0.40000
  -160.00  0.79180  0.28494  -0.14208
  -150.00  0.70940  0.46396  -0.06278
  -140.00  0.65840  0.68226  -0.00706
  -130.00  0.58920  0.91258  0.04686
  -120.00  0.48320  1.12550  0.10018
  -110.00  0.34200  1.29378  0.14930
  -100.00  0.17500  1.39538  0.18920
   -90.00  0.00000  1.41600  0.21490
   -80.00  -0.17500  1.39538  0.23496
   -70.00  -0.34200  1.29378  0.23886
   -60.00  -0.48320  1.12550  0.22980
   -50.00  -0.58920  0.91258  0.21372
   -40.00  -0.65840  0.68226  0.20040
   -30.00  -0.70940  0.46396  0.20776
   -20.00  -0.79000  0.28472  0.28392
   -10.00  -0.31040  0.10574  0.11202
    -6.04  -0.13635  0.03495  -0.06969
    -5.04  -0.07725  0.02130  -0.10770
    -4.09  -0.01890  0.00987  -0.13955
    -3.02  0.10149  0.00981  -0.14144
    -2.02  0.21275  0.00976  -0.14280
    -1.03  0.32438  0.00978  -0.14422
    -0.04  0.43602  0.00990  -0.14518
     1.23  0.57953  0.01013  -0.14625
     2.46  0.71660  0.01040  -0.14728
     3.69  0.85310  0.01078  -0.14789
     4.92  0.98278  0.01112  -0.14705
     6.15  1.10779  0.01171  -0.14530
     7.38  1.21380  0.01240  -0.14014
     9.51  1.28392  0.02001  -0.11848
    11.65  1.20802  0.06392  -0.10352
    13.78  1.19915  0.11399  -0.10523
    15.91  1.18801  0.16037  -0.10900
    18.04  1.17295  0.21862  -0.12122
    20.17  1.15445  0.28105  -0.13569
    22.30  1.11256  0.32599  -0.15988
    24.43  1.08499  0.36422  -0.18187
    26.56  1.05742  0.40246  -0.20385
    28.69  1.02985  0.44069  -0.22584
    30.82  1.00770  0.48267  -0.24380
    32.95  0.99150  0.52865  -0.25756
    35.08  0.97611  0.57514  -0.27082
    37.22  0.96073  0.62163  -0.28408
    39.35  0.94534  0.66812  -0.29733
    41.48  0.92595  0.71641  -0.30901
    43.61  0.90476  0.76545  -0.32000
    45.74  0.88357  0.81449  -0.33098
    47.87  0.86239  0.86354  -0.34197
    50.00  0.84120  0.91258  -0.35296
    60.00  0.69020  1.12550  -0.39870
    70.00  0.48820  1.29378  -0.43826
    80.00  0.25000  1.39538  -0.47040
    90.00  0.00000  1.41600  -0.49310
   100.00  -0.17500  1.39538  -0.51308
   110.00  -0.34200  1.29378  -0.51706
   120.00  -0.48320  1.12550  -0.50792
   130.00  -0.58920  0.91258  -0.49192
   140.00  -0.65840  0.68226  -0.47852
   150.00  -0.70940  0.46396  -0.48588
   160.00  -0.79180  0.28494  -0.56274
   170.00  -0.39540  0.16776  -0.50000
   180.00  0.00000  0.12692  0.00000
EOT
