AeroDyn airfoil file.  Compatible with AeroDyn v13.0.
Interpolated thickness: 0.727

  1        Number of airfoil tables in this file
  9990     Reynolds number in millions.  For efficiency, make very large if only one table.
  0        Control setting
  10.6991  Stall angle (deg)
  -3.18191 Zero lift angle of attack (deg)
  2.59608  Cn slope for zero lift (dimensionless)
  0.62895  Cn at stall value for positive angle of attack
  -0.8     Cn at stall value for negative angle of attack
  -2.12    Angle of attack for minimum CD (deg)
  0.228048 Minimum CD value
  -180.00  0.00006  0.26411  -0.00006
  -170.00  0.14159  0.27888  0.14362
  -160.00  0.28348  0.32123  -0.05150
  -150.00  0.25474  0.38596  -0.02269
  -140.00  0.23642  0.46495  -0.00261
  -130.00  0.21164  0.54839  0.01682
  -120.00  0.17356  0.62569  0.03611
  -110.00  0.12291  0.68705  0.05400
  -100.00  0.06293  0.72451  0.06865
   -90.00  0.00006  0.73292  0.07828
   -80.00  -0.06280  0.72451  0.08539
   -70.00  -0.12279  0.68705  0.08669
   -60.00  -0.17343  0.62569  0.08334
   -50.00  -0.21151  0.54839  0.07753
   -40.00  -0.23630  0.46495  0.07278
   -30.00  -0.25462  0.38596  0.07562
   -20.00  -0.28263  0.32116  0.10321
   -10.00  -0.11560  0.26235  0.04559
    -4.17  -0.02580  0.22812  -0.04841
    -3.17  0.01515  0.22808  -0.04913
    -2.12  0.05754  0.22805  -0.04971
    -1.08  0.10028  0.22805  -0.05035
    -0.05  0.14267  0.22808  -0.05071
    -0.02  0.14277  0.22808  -0.05071
     1.15  0.19284  0.22816  -0.05118
     2.31  0.24000  0.22823  -0.05157
     3.46  0.28732  0.22835  -0.05184
     4.62  0.33314  0.22845  -0.05177
     5.77  0.37751  0.22858  -0.05145
     6.92  0.41957  0.22881  -0.05068
     8.08  0.45411  0.22905  -0.04856
    10.70  0.46980  0.23360  -0.03775
    13.32  0.41119  0.26540  -0.03487
    15.94  0.39707  0.28508  -0.03793
    18.56  0.40613  0.30469  -0.04268
    21.18  0.40388  0.32930  -0.05042
    23.80  0.39182  0.34626  -0.06025
    26.42  0.37976  0.36322  -0.07008
    29.04  0.36770  0.38018  -0.07991
    31.66  0.35913  0.39955  -0.08714
    34.28  0.35238  0.42018  -0.09303
    36.90  0.34563  0.44081  -0.09892
    39.52  0.33887  0.46143  -0.10481
    42.14  0.33002  0.48302  -0.10986
    44.76  0.32073  0.50481  -0.11474
    47.38  0.31145  0.52660  -0.11962
    50.00  0.30216  0.54839  -0.12449
    60.00  0.24792  0.62569  -0.14113
    70.00  0.17536  0.68705  -0.15560
    80.00  0.08987  0.72451  -0.16749
    90.00  0.00006  0.73292  -0.17604
   100.00  -0.06280  0.72451  -0.18312
   110.00  -0.12279  0.68705  -0.18445
   120.00  -0.17343  0.62569  -0.18107
   130.00  -0.21151  0.54839  -0.17529
   140.00  -0.23630  0.46495  -0.17051
   150.00  -0.25462  0.38596  -0.17335
   160.00  -0.28335  0.32123  -0.20122
   170.00  -0.14146  0.27888  -0.17967
   180.00  0.00006  0.26411  -0.00006
EOT
