AeroDyn airfoil file.  Compatible with AeroDyn v13.0.
Interpolated thickness: 0.796

  1        Number of airfoil tables in this file
  9990     Reynolds number in millions.  For efficiency, make very large if only one table.
  0        Control setting
  10.6804  Stall angle (deg)
  -3.1118  Zero lift angle of attack (deg)
  2.00663  Cn slope for zero lift (dimensionless)
  0.483034 Cn at stall value for positive angle of attack
  -0.8     Cn at stall value for negative angle of attack
  -2.12    Angle of attack for minimum CD (deg)
  0.258871 Minimum CD value
  -180.00  0.00007  0.28582  -0.00007
  -170.00  0.10583  0.29685  0.10730
  -160.00  0.21186  0.32850  -0.03851
  -150.00  0.19038  0.37687  -0.01698
  -140.00  0.17669  0.43589  -0.00198
  -130.00  0.15817  0.49825  0.01254
  -120.00  0.12972  0.55601  0.02696
  -110.00  0.09187  0.60186  0.04032
  -100.00  0.04705  0.62986  0.05128
   -90.00  0.00007  0.63614  0.05847
   -80.00  -0.04690  0.62986  0.06378
   -70.00  -0.09173  0.60186  0.06475
   -60.00  -0.12957  0.55601  0.06225
   -50.00  -0.15803  0.49825  0.05791
   -40.00  -0.17655  0.43589  0.05436
   -30.00  -0.19024  0.37687  0.05648
   -20.00  -0.21117  0.32845  0.07710
   -10.00  -0.08636  0.28451  0.03404
    -4.17  -0.01925  0.25892  -0.03620
    -3.17  0.01135  0.25890  -0.03674
    -2.12  0.04302  0.25887  -0.03717
    -1.08  0.07496  0.25887  -0.03765
    -0.05  0.10664  0.25890  -0.03792
    -0.01  0.10671  0.25890  -0.03792
     1.15  0.14413  0.25896  -0.03827
     2.30  0.17937  0.25900  -0.03856
     3.45  0.21472  0.25910  -0.03876
     4.61  0.24897  0.25917  -0.03871
     5.76  0.28212  0.25927  -0.03847
     6.91  0.31355  0.25944  -0.03790
     8.06  0.33936  0.25962  -0.03631
    10.68  0.35109  0.26302  -0.02824
    13.30  0.30729  0.28678  -0.02608
    15.92  0.29673  0.30149  -0.02837
    18.54  0.30351  0.31614  -0.03192
    21.17  0.30182  0.33453  -0.03770
    23.79  0.29281  0.34720  -0.04505
    26.41  0.28380  0.35988  -0.05239
    29.03  0.27479  0.37255  -0.05974
    31.65  0.26839  0.38703  -0.06514
    34.27  0.26334  0.40244  -0.06954
    36.89  0.25830  0.41785  -0.07394
    39.51  0.25325  0.43327  -0.07835
    42.14  0.24663  0.44940  -0.08212
    44.76  0.23969  0.46568  -0.08576
    47.38  0.23275  0.48197  -0.08941
    50.00  0.22582  0.49825  -0.09305
    60.00  0.18528  0.55601  -0.10548
    70.00  0.13106  0.60186  -0.11630
    80.00  0.06718  0.62986  -0.12518
    90.00  0.00007  0.63614  -0.13157
   100.00  -0.04690  0.62986  -0.13686
   110.00  -0.09173  0.60186  -0.13785
   120.00  -0.12957  0.55601  -0.13533
   130.00  -0.15803  0.49825  -0.13101
   140.00  -0.17655  0.43589  -0.12744
   150.00  -0.19024  0.37687  -0.12956
   160.00  -0.21171  0.32850  -0.15039
   170.00  -0.10568  0.29685  -0.13428
   180.00  0.00007  0.28582  -0.00007
EOT
