AeroDyn airfoil file.  Compatible with AeroDyn v13.0.
Interpolated thickness: 0.826

  1        Number of airfoil tables in this file
  9990     Reynolds number in millions.  For efficiency, make very large if only one table.
  0        Control setting
  10.6722  Stall angle (deg)
  -3.01874 Zero lift angle of attack (deg)
  1.76459  Cn slope for zero lift (dimensionless)
  0.421653 Cn at stall value for positive angle of attack
  -0.8     Cn at stall value for negative angle of attack
  -2.12    Angle of attack for minimum CD (deg)
  0.272272 Minimum CD value
  -180.00  0.00008  0.29526  -0.00008
  -170.00  0.09028  0.30467  0.09150
  -160.00  0.18072  0.33166  -0.03286
  -150.00  0.16240  0.37292  -0.01450
  -140.00  0.15072  0.42326  -0.00170
  -130.00  0.13493  0.47645  0.01068
  -120.00  0.11066  0.52572  0.02298
  -110.00  0.07838  0.56482  0.03438
  -100.00  0.04014  0.58870  0.04372
   -90.00  0.00008  0.59406  0.04986
   -80.00  -0.03999  0.58870  0.05439
   -70.00  -0.07822  0.56482  0.05521
   -60.00  -0.11050  0.52572  0.05308
   -50.00  -0.13477  0.47645  0.04938
   -40.00  -0.15057  0.42326  0.04635
   -30.00  -0.16225  0.37292  0.04816
   -20.00  -0.18010  0.33162  0.06575
   -10.00  -0.07364  0.29414  0.02902
    -4.17  -0.01641  0.27232  -0.03089
    -3.17  0.00969  0.27230  -0.03135
    -2.12  0.03671  0.27227  -0.03172
    -1.08  0.06395  0.27227  -0.03213
    -0.05  0.09097  0.27230  -0.03236
    -0.01  0.09103  0.27230  -0.03236
     1.15  0.12295  0.27235  -0.03265
     2.30  0.15301  0.27239  -0.03290
     3.45  0.18316  0.27246  -0.03308
     4.60  0.21237  0.27253  -0.03303
     5.75  0.24064  0.27261  -0.03283
     6.90  0.26745  0.27276  -0.03234
     8.05  0.28947  0.27291  -0.03099
    10.67  0.29947  0.27581  -0.02410
    13.29  0.26212  0.29608  -0.02226
    15.92  0.25311  0.30862  -0.02421
    18.54  0.25889  0.32112  -0.02724
    21.16  0.25745  0.33680  -0.03217
    23.78  0.24976  0.34761  -0.03844
    26.40  0.24208  0.35842  -0.04470
    29.03  0.23439  0.36923  -0.05097
    31.65  0.22893  0.38158  -0.05558
    34.27  0.22463  0.39473  -0.05933
    36.89  0.22033  0.40788  -0.06308
    39.51  0.21602  0.42102  -0.06684
    42.13  0.21038  0.43478  -0.07006
    44.76  0.20446  0.44867  -0.07317
    47.38  0.19854  0.46256  -0.07628
    50.00  0.19262  0.47645  -0.07938
    60.00  0.15805  0.52572  -0.08998
    70.00  0.11180  0.56482  -0.09921
    80.00  0.05731  0.58870  -0.10679
    90.00  0.00008  0.59406  -0.11224
   100.00  -0.03999  0.58870  -0.11675
   110.00  -0.07822  0.56482  -0.11760
   120.00  -0.11050  0.52572  -0.11544
   130.00  -0.13477  0.47645  -0.11176
   140.00  -0.15057  0.42326  -0.10871
   150.00  -0.16225  0.37292  -0.11052
   160.00  -0.18056  0.33166  -0.12829
   170.00  -0.09013  0.30467  -0.11455
   180.00  0.00008  0.29526  -0.00008
EOT
