AeroDyn airfoil file.  Compatible with AeroDyn v13.0.
Interpolated thickness: 0.663

  1        Number of airfoil tables in this file
  9990     Reynolds number in millions.  For efficiency, make very large if only one table.
  0        Control setting
  10.7165  Stall angle (deg)
  -3.27779 Zero lift angle of attack (deg)
  3.11298  Cn slope for zero lift (dimensionless)
  0.760332 Cn at stall value for positive angle of attack
  -0.8     Cn at stall value for negative angle of attack
  -2.12    Angle of attack for minimum CD (deg)
  0.199459 Minimum CD value
  -180.00  0.00006  0.24398  -0.00006
  -170.00  0.17476  0.26220  0.17731
  -160.00  0.34991  0.31448  -0.06355
  -150.00  0.31444  0.39439  -0.02799
  -140.00  0.29183  0.49189  -0.00320
  -130.00  0.26123  0.59490  0.02079
  -120.00  0.21423  0.69033  0.04460
  -110.00  0.15171  0.76606  0.06668
  -100.00  0.07765  0.81231  0.08477
   -90.00  0.00006  0.82269  0.09665
   -80.00  -0.07754  0.81231  0.10543
   -70.00  -0.15159  0.76606  0.10703
   -60.00  -0.21412  0.69033  0.10291
   -50.00  -0.26112  0.59490  0.09572
   -40.00  -0.29172  0.49189  0.08987
   -30.00  -0.31433  0.39439  0.09337
   -20.00  -0.34892  0.31439  0.12743
   -10.00  -0.14273  0.24181  0.05630
    -4.17  -0.03187  0.19955  -0.05974
    -3.17  0.01868  0.19950  -0.06063
    -2.12  0.07100  0.19946  -0.06134
    -1.08  0.12377  0.19946  -0.06213
    -0.05  0.17609  0.19950  -0.06258
    -0.02  0.17622  0.19950  -0.06258
     1.16  0.23803  0.19960  -0.06315
     2.31  0.29625  0.19968  -0.06364
     3.47  0.35465  0.19983  -0.06397
     4.63  0.41122  0.19995  -0.06388
     5.78  0.46598  0.20012  -0.06349
     6.94  0.51791  0.20040  -0.06254
     8.10  0.56054  0.20070  -0.05992
    10.72  0.57992  0.20632  -0.04658
    13.34  0.50757  0.24556  -0.04302
    15.95  0.49013  0.26986  -0.04680
    18.57  0.50131  0.29406  -0.05266
    21.19  0.49853  0.32444  -0.06221
    23.81  0.48365  0.34538  -0.07435
    26.43  0.46876  0.36631  -0.08648
    29.05  0.45387  0.38725  -0.09862
    31.67  0.44330  0.41117  -0.10755
    34.29  0.43497  0.43663  -0.11482
    36.91  0.42663  0.46209  -0.12209
    39.52  0.41829  0.48756  -0.12936
    42.14  0.40736  0.51421  -0.13559
    44.76  0.39590  0.54111  -0.14161
    47.38  0.38444  0.56800  -0.14764
    50.00  0.37297  0.59490  -0.15366
    60.00  0.30602  0.69033  -0.17419
    70.00  0.21645  0.76606  -0.19206
    80.00  0.11091  0.81231  -0.20673
    90.00  0.00006  0.82269  -0.21729
   100.00  -0.07754  0.81231  -0.22602
   110.00  -0.15159  0.76606  -0.22766
   120.00  -0.21412  0.69033  -0.22350
   130.00  -0.26112  0.59490  -0.21636
   140.00  -0.29172  0.49189  -0.21046
   150.00  -0.31433  0.39439  -0.21396
   160.00  -0.34980  0.31448  -0.24837
   170.00  -0.17465  0.26220  -0.22177
   180.00  0.00006  0.24398  -0.00006
EOT
