AeroDyn airfoil file.  Compatible with AeroDyn v13.0.
Interpolated thickness: 0.842

  1        Number of airfoil tables in this file
  9990     Reynolds number in millions.  For efficiency, make very large if only one table.
  0        Control setting
  10.6679  Stall angle (deg)
  -2.95827 Zero lift angle of attack (deg)
  1.63527  Cn slope for zero lift (dimensionless)
  0.388903 Cn at stall value for positive angle of attack
  -0.8     Cn at stall value for negative angle of attack
  -2.12    Angle of attack for minimum CD (deg)
  0.27942  Minimum CD value
  -180.00  0.00008  0.30029  -0.00008
  -170.00  0.08199  0.30884  0.08308
  -160.00  0.16411  0.33335  -0.02985
  -150.00  0.14748  0.37081  -0.01318
  -140.00  0.13687  0.41653  -0.00156
  -130.00  0.12253  0.46482  0.00969
  -120.00  0.10049  0.50956  0.02086
  -110.00  0.07118  0.54507  0.03121
  -100.00  0.03646  0.56675  0.03969
   -90.00  0.00008  0.57162  0.04526
   -80.00  -0.03630  0.56675  0.04938
   -70.00  -0.07102  0.54507  0.05013
   -60.00  -0.10033  0.50956  0.04819
   -50.00  -0.12237  0.46482  0.04483
   -40.00  -0.13672  0.41653  0.04208
   -30.00  -0.14732  0.37081  0.04372
   -20.00  -0.16353  0.33331  0.05969
   -10.00  -0.06686  0.29927  0.02634
    -4.17  -0.01489  0.27946  -0.02806
    -3.17  0.00881  0.27944  -0.02848
    -2.12  0.03334  0.27942  -0.02881
    -1.08  0.05808  0.27942  -0.02918
    -0.05  0.08261  0.27944  -0.02939
    -0.01  0.08267  0.27944  -0.02939
     1.15  0.11165  0.27949  -0.02966
     2.30  0.13895  0.27952  -0.02989
     3.45  0.16633  0.27959  -0.03004
     4.60  0.19285  0.27965  -0.03000
     5.75  0.21853  0.27973  -0.02982
     6.90  0.24287  0.27986  -0.02937
     8.05  0.26286  0.28000  -0.02815
    10.67  0.27194  0.28264  -0.02189
    13.29  0.23802  0.30104  -0.02022
    15.91  0.22985  0.31243  -0.02199
    18.53  0.23509  0.32377  -0.02474
    21.16  0.23379  0.33802  -0.02922
    23.78  0.22681  0.34783  -0.03491
    26.40  0.21983  0.35765  -0.04060
    29.02  0.21285  0.36746  -0.04629
    31.65  0.20789  0.37868  -0.05047
    34.27  0.20398  0.39062  -0.05388
    36.89  0.20007  0.40255  -0.05729
    39.51  0.19617  0.41449  -0.06070
    42.13  0.19104  0.42699  -0.06363
    44.76  0.18567  0.43960  -0.06645
    47.38  0.18029  0.45221  -0.06927
    50.00  0.17492  0.46482  -0.07209
    60.00  0.14353  0.50956  -0.08172
    70.00  0.10153  0.54507  -0.09010
    80.00  0.05205  0.56675  -0.09698
    90.00  0.00008  0.57162  -0.10193
   100.00  -0.03630  0.56675  -0.10602
   110.00  -0.07102  0.54507  -0.10679
   120.00  -0.10033  0.50956  -0.10484
   130.00  -0.12237  0.46482  -0.10149
   140.00  -0.13672  0.41653  -0.09873
   150.00  -0.14732  0.37081  -0.10037
   160.00  -0.16395  0.33335  -0.11650
   170.00  -0.08183  0.30884  -0.10403
   180.00  0.00008  0.30029  -0.00008
EOT
