AeroDyn airfoil file.  Compatible with AeroDyn v13.0.
Interpolated thickness: 0.952

  1        Number of airfoil tables in this file
  9990     Reynolds number in millions.  For efficiency, make very large if only one table.
  0        Control setting
  10.638   Stall angle (deg)
  -1.98661 Zero lift angle of attack (deg)
  0.741903 Cn slope for zero lift (dimensionless)
  0.163472 Cn at stall value for positive angle of attack
  -0.8     Cn at stall value for negative angle of attack
  -2.12    Angle of attack for minimum CD (deg)
  0.328558 Minimum CD value
  -180.00  0.00009  0.33490  -0.00009
  -170.00  0.02498  0.33749  0.02517
  -160.00  0.04993  0.34494  -0.00914
  -150.00  0.04487  0.35632  -0.00407
  -140.00  0.04165  0.37021  -0.00054
  -130.00  0.03729  0.38488  0.00287
  -120.00  0.03060  0.39847  0.00627
  -110.00  0.02169  0.40926  0.00941
  -100.00  0.01115  0.41585  0.01199
   -90.00  0.00009  0.41733  0.01368
   -80.00  -0.01096  0.41585  0.01493
   -70.00  -0.02151  0.40926  0.01516
   -60.00  -0.03041  0.39847  0.01457
   -50.00  -0.03711  0.38488  0.01355
   -40.00  -0.04146  0.37021  0.01271
   -30.00  -0.04469  0.35632  0.01321
   -20.00  -0.04961  0.34493  0.01806
   -10.00  -0.02024  0.33459  0.00793
    -4.17  -0.00445  0.32857  -0.00859
    -3.17  0.00275  0.32856  -0.00872
    -2.12  0.01020  0.32856  -0.00882
    -1.08  0.01771  0.32856  -0.00894
    -0.05  0.02517  0.32856  -0.00900
    -0.00  0.02518  0.32856  -0.00900
     1.14  0.03399  0.32858  -0.00908
     2.29  0.04228  0.32859  -0.00915
     3.43  0.05060  0.32861  -0.00920
     4.58  0.05866  0.32863  -0.00919
     5.72  0.06646  0.32865  -0.00913
     6.87  0.07385  0.32869  -0.00899
     8.01  0.07993  0.32873  -0.00862
    10.64  0.08269  0.32953  -0.00672
    13.26  0.07238  0.33512  -0.00621
    15.89  0.06990  0.33859  -0.00675
    18.51  0.07149  0.34203  -0.00759
    21.13  0.07109  0.34636  -0.00895
    23.76  0.06897  0.34934  -0.01068
    26.38  0.06685  0.35232  -0.01240
    29.01  0.06473  0.35531  -0.01413
    31.63  0.06323  0.35871  -0.01540
    34.26  0.06204  0.36234  -0.01644
    36.88  0.06085  0.36597  -0.01748
    39.50  0.05966  0.36959  -0.01851
    42.13  0.05811  0.37339  -0.01940
    44.75  0.05647  0.37722  -0.02026
    47.38  0.05484  0.38105  -0.02111
    50.00  0.05321  0.38488  -0.02197
    60.00  0.04367  0.39847  -0.02490
    70.00  0.03091  0.40926  -0.02744
    80.00  0.01588  0.41585  -0.02953
    90.00  0.00009  0.41733  -0.03103
   100.00  -0.01096  0.41585  -0.03228
   110.00  -0.02151  0.40926  -0.03251
   120.00  -0.03041  0.39847  -0.03192
   130.00  -0.03711  0.38488  -0.03090
   140.00  -0.04146  0.37021  -0.03006
   150.00  -0.04469  0.35632  -0.03056
   160.00  -0.04974  0.34494  -0.03546
   170.00  -0.02479  0.33749  -0.03167
   180.00  0.00009  0.33490  -0.00009
EOT
