AeroDyn airfoil file.  Compatible with AeroDyn v13.0.
Interpolated thickness: 0.894

  1        Number of airfoil tables in this file
  9990     Reynolds number in millions.  For efficiency, make very large if only one table.
  0        Control setting
  10.6538  Stall angle (deg)
  -2.67523 Zero lift angle of attack (deg)
  1.21389  Cn slope for zero lift (dimensionless)
  0.282394 Cn at stall value for positive angle of attack
  -0.8     Cn at stall value for negative angle of attack
  -2.12    Angle of attack for minimum CD (deg)
  0.302649 Minimum CD value
  -180.00  0.00009  0.31665  -0.00009
  -170.00  0.05504  0.32238  0.05570
  -160.00  0.11013  0.33883  -0.02006
  -150.00  0.09897  0.36396  -0.00887
  -140.00  0.09186  0.39463  -0.00108
  -130.00  0.08224  0.42703  0.00647
  -120.00  0.06745  0.45705  0.01396
  -110.00  0.04779  0.48087  0.02090
  -100.00  0.02449  0.49542  0.02660
   -90.00  0.00009  0.49868  0.03033
   -80.00  -0.02432  0.49542  0.03309
   -70.00  -0.04761  0.48087  0.03360
   -60.00  -0.06728  0.45705  0.03230
   -50.00  -0.08206  0.42703  0.03004
   -40.00  -0.09169  0.39463  0.02820
   -30.00  -0.09880  0.36396  0.02930
   -20.00  -0.10968  0.33880  0.04001
   -10.00  -0.04482  0.31597  0.01764
    -4.17  -0.00996  0.30268  -0.01886
    -3.17  0.00594  0.30266  -0.01914
    -2.12  0.02240  0.30265  -0.01936
    -1.08  0.03900  0.30265  -0.01961
    -0.05  0.05546  0.30266  -0.01975
    -0.01  0.05550  0.30266  -0.01975
     1.15  0.07494  0.30269  -0.01993
     2.29  0.09325  0.30272  -0.02008
     3.44  0.11162  0.30277  -0.02019
     4.59  0.12941  0.30280  -0.02016
     5.74  0.14664  0.30286  -0.02004
     6.88  0.16297  0.30294  -0.01974
     8.03  0.17638  0.30304  -0.01892
    10.65  0.18248  0.30481  -0.01472
    13.28  0.15972  0.31715  -0.01360
    15.90  0.15423  0.32479  -0.01479
    18.52  0.15775  0.33241  -0.01663
    21.15  0.15688  0.34196  -0.01964
    23.77  0.15219  0.34855  -0.02345
    26.39  0.14751  0.35513  -0.02727
    29.02  0.14283  0.36172  -0.03109
    31.64  0.13950  0.36924  -0.03390
    34.26  0.13688  0.37725  -0.03618
    36.88  0.13426  0.38526  -0.03847
    39.51  0.13164  0.39327  -0.04076
    42.13  0.12820  0.40165  -0.04272
    44.75  0.12459  0.41011  -0.04461
    47.38  0.12099  0.41857  -0.04651
    50.00  0.11738  0.42703  -0.04840
    60.00  0.09632  0.45705  -0.05486
    70.00  0.06815  0.48087  -0.06048
    80.00  0.03495  0.49542  -0.06509
    90.00  0.00009  0.49868  -0.06841
   100.00  -0.02432  0.49542  -0.07116
   110.00  -0.04761  0.48087  -0.07168
   120.00  -0.06728  0.45705  -0.07037
   130.00  -0.08206  0.42703  -0.06812
   140.00  -0.09169  0.39463  -0.06627
   150.00  -0.09880  0.36396  -0.06737
   160.00  -0.10996  0.33883  -0.07819
   170.00  -0.05487  0.32238  -0.06982
   180.00  0.00009  0.31665  -0.00009
EOT
