AeroDyn airfoil file.  Compatible with AeroDyn v13.0.
Interpolated thickness: 0.718

  1        Number of airfoil tables in this file
  9990     Reynolds number in millions.  For efficiency, make very large if only one table.
  0        Control setting
  10.7015  Stall angle (deg)
  -3.19731 Zero lift angle of attack (deg)
  2.66899  Cn slope for zero lift (dimensionless)
  0.647445 Cn at stall value for positive angle of attack
  -0.8     Cn at stall value for negative angle of attack
  -2.12    Angle of attack for minimum CD (deg)
  0.224028 Minimum CD value
  -180.00  0.00006  0.26128  -0.00006
  -170.00  0.14626  0.27653  0.14836
  -160.00  0.29282  0.32028  -0.05320
  -150.00  0.26314  0.38714  -0.02344
  -140.00  0.24422  0.46874  -0.00270
  -130.00  0.21861  0.55493  0.01738
  -120.00  0.17928  0.63478  0.03730
  -110.00  0.12696  0.69816  0.05578
  -100.00  0.06500  0.73686  0.07092
   -90.00  0.00006  0.74554  0.08086
   -80.00  -0.06487  0.73686  0.08821
   -70.00  -0.12684  0.69816  0.08955
   -60.00  -0.17916  0.63478  0.08610
   -50.00  -0.21849  0.55493  0.08008
   -40.00  -0.24409  0.46874  0.07519
   -30.00  -0.26301  0.38714  0.07812
   -20.00  -0.29196  0.32020  0.10661
   -10.00  -0.11942  0.25946  0.04710
    -4.17  -0.02665  0.22410  -0.05001
    -3.17  0.01565  0.22406  -0.05075
    -2.12  0.05943  0.22403  -0.05134
    -1.08  0.10359  0.22403  -0.05201
    -0.05  0.14737  0.22406  -0.05238
    -0.02  0.14747  0.22406  -0.05238
     1.15  0.19920  0.22415  -0.05286
     2.31  0.24791  0.22421  -0.05327
     3.46  0.29679  0.22434  -0.05354
     4.62  0.34412  0.22444  -0.05347
     5.77  0.38995  0.22458  -0.05314
     6.93  0.43340  0.22481  -0.05235
     8.08  0.46907  0.22507  -0.05016
    10.70  0.48529  0.22977  -0.03899
    13.32  0.42475  0.26261  -0.03602
    15.94  0.41015  0.28294  -0.03918
    18.56  0.41951  0.30319  -0.04408
    21.18  0.41719  0.32861  -0.05208
    23.80  0.40473  0.34613  -0.06223
    26.42  0.39227  0.36365  -0.07238
    29.04  0.37981  0.38117  -0.08254
    31.66  0.37097  0.40119  -0.09001
    34.28  0.36399  0.42249  -0.09609
    36.90  0.35702  0.44380  -0.10218
    39.52  0.35004  0.46511  -0.10826
    42.14  0.34089  0.48741  -0.11348
    44.76  0.33130  0.50992  -0.11852
    47.38  0.32171  0.53242  -0.12356
    50.00  0.31212  0.55493  -0.12860
    60.00  0.25609  0.63478  -0.14578
    70.00  0.18114  0.69816  -0.16073
    80.00  0.09283  0.73686  -0.17301
    90.00  0.00006  0.74554  -0.18184
   100.00  -0.06487  0.73686  -0.18915
   110.00  -0.12684  0.69816  -0.19052
   120.00  -0.17916  0.63478  -0.18704
   130.00  -0.21849  0.55493  -0.18106
   140.00  -0.24409  0.46874  -0.17613
   150.00  -0.26301  0.38714  -0.17906
   160.00  -0.29270  0.32028  -0.20785
   170.00  -0.14613  0.27653  -0.18559
   180.00  0.00006  0.26128  -0.00006
EOT
