AeroDyn airfoil file.  Compatible with AeroDyn v13.0.
Interpolated thickness: 0.615

  1        Number of airfoil tables in this file
  9990     Reynolds number in millions.  For efficiency, make very large if only one table.
  0        Control setting
  10.7295  Stall angle (deg)
  -3.33395 Zero lift angle of attack (deg)
  3.49828  Cn slope for zero lift (dimensionless)
  0.858664 Cn at stall value for positive angle of attack
  -0.8     Cn at stall value for negative angle of attack
  -2.12    Angle of attack for minimum CD (deg)
  0.178016 Minimum CD value
  -180.00  0.00005  0.22888  -0.00005
  -170.00  0.19964  0.24970  0.20258
  -160.00  0.39974  0.30942  -0.07259
  -150.00  0.35921  0.40071  -0.03196
  -140.00  0.33338  0.51211  -0.00365
  -130.00  0.29842  0.62978  0.02376
  -120.00  0.24473  0.73880  0.05096
  -110.00  0.17330  0.82532  0.07619
  -100.00  0.08870  0.87816  0.09686
   -90.00  0.00005  0.89001  0.11044
   -80.00  -0.08860  0.87816  0.12047
   -70.00  -0.17320  0.82532  0.12229
   -60.00  -0.24463  0.73880  0.11758
   -50.00  -0.29833  0.62978  0.10937
   -40.00  -0.33328  0.51211  0.10268
   -30.00  -0.35912  0.40071  0.10669
   -20.00  -0.39863  0.30932  0.14559
   -10.00  -0.16307  0.22639  0.06434
    -4.17  -0.03642  0.17812  -0.06823
    -3.17  0.02133  0.17807  -0.06925
    -2.12  0.08110  0.17802  -0.07006
    -1.08  0.14138  0.17802  -0.07097
    -0.05  0.20116  0.17807  -0.07148
    -0.02  0.20130  0.17807  -0.07148
     1.16  0.27192  0.17818  -0.07213
     2.32  0.33843  0.17827  -0.07268
     3.48  0.40515  0.17844  -0.07307
     4.64  0.46978  0.17858  -0.07297
     5.79  0.53234  0.17877  -0.07252
     6.95  0.59166  0.17909  -0.07143
     8.11  0.64037  0.17943  -0.06844
    10.73  0.66250  0.18585  -0.05320
    13.35  0.57985  0.23069  -0.04914
    15.97  0.55993  0.25845  -0.05345
    18.58  0.57270  0.28610  -0.06015
    21.20  0.56953  0.32080  -0.07106
    23.82  0.55252  0.34472  -0.08492
    26.44  0.53551  0.36864  -0.09879
    29.06  0.51850  0.39256  -0.11265
    31.67  0.50643  0.41988  -0.12285
    34.29  0.49691  0.44897  -0.13116
    36.91  0.48738  0.47806  -0.13946
    39.53  0.47786  0.50715  -0.14777
    42.15  0.46537  0.53760  -0.15489
    44.76  0.45227  0.56833  -0.16177
    47.38  0.43918  0.59905  -0.16865
    50.00  0.42608  0.62978  -0.17553
    60.00  0.34959  0.73880  -0.19898
    70.00  0.24726  0.82532  -0.21940
    80.00  0.12669  0.87816  -0.23617
    90.00  0.00005  0.89001  -0.24822
   100.00  -0.08860  0.87816  -0.25820
   110.00  -0.17320  0.82532  -0.26008
   120.00  -0.24463  0.73880  -0.25531
   130.00  -0.29833  0.62978  -0.24716
   140.00  -0.33328  0.51211  -0.24042
   150.00  -0.35912  0.40071  -0.24442
   160.00  -0.39964  0.30942  -0.28373
   170.00  -0.19954  0.24970  -0.25334
   180.00  0.00005  0.22888  -0.00005
EOT
