AeroDyn airfoil file.  Compatible with AeroDyn v13.0.
Interpolated thickness: 0.91

  1        Number of airfoil tables in this file
  9990     Reynolds number in millions.  For efficiency, make very large if only one table.
  0        Control setting
  10.6494  Stall angle (deg)
  -2.54469 Zero lift angle of attack (deg)
  1.0839   Cn slope for zero lift (dimensionless)
  0.249601 Cn at stall value for positive angle of attack
  -0.8     Cn at stall value for negative angle of attack
  -2.12    Angle of attack for minimum CD (deg)
  0.309796 Minimum CD value
  -180.00  0.00009  0.32169  -0.00009
  -170.00  0.04675  0.32655  0.04728
  -160.00  0.09352  0.34051  -0.01705
  -150.00  0.08405  0.36185  -0.00755
  -140.00  0.07801  0.38789  -0.00093
  -130.00  0.06984  0.41540  0.00548
  -120.00  0.05729  0.44089  0.01184
  -110.00  0.04059  0.46111  0.01773
  -100.00  0.02081  0.47347  0.02257
   -90.00  0.00009  0.47624  0.02574
   -80.00  -0.02064  0.47347  0.02808
   -70.00  -0.04041  0.46111  0.02851
   -60.00  -0.05711  0.44089  0.02741
   -50.00  -0.06966  0.41540  0.02549
   -40.00  -0.07783  0.38789  0.02393
   -30.00  -0.08387  0.36185  0.02486
   -20.00  -0.09311  0.34049  0.03396
   -10.00  -0.03804  0.32111  0.01496
    -4.17  -0.00844  0.30982  -0.01603
    -3.17  0.00506  0.30981  -0.01626
    -2.12  0.01904  0.30980  -0.01645
    -1.08  0.03313  0.30980  -0.01667
    -0.05  0.04710  0.30981  -0.01679
    -0.01  0.04713  0.30981  -0.01679
     1.15  0.06364  0.30983  -0.01694
     2.29  0.07919  0.30985  -0.01707
     3.44  0.09479  0.30989  -0.01716
     4.59  0.10989  0.30993  -0.01713
     5.73  0.12452  0.30997  -0.01703
     6.88  0.13839  0.31005  -0.01677
     8.03  0.14977  0.31013  -0.01607
    10.65  0.15495  0.31163  -0.01251
    13.27  0.13563  0.32211  -0.01156
    15.90  0.13097  0.32860  -0.01257
    18.52  0.13396  0.33506  -0.01414
    21.14  0.13321  0.34317  -0.01669
    23.77  0.12924  0.34877  -0.01993
    26.39  0.12526  0.35436  -0.02317
    29.01  0.12129  0.35995  -0.02641
    31.64  0.11846  0.36634  -0.02879
    34.26  0.11624  0.37314  -0.03074
    36.88  0.11401  0.37994  -0.03268
    39.51  0.11178  0.38674  -0.03462
    42.13  0.10886  0.39385  -0.03629
    44.75  0.10580  0.40104  -0.03789
    47.38  0.10274  0.40822  -0.03950
    50.00  0.09968  0.41540  -0.04111
    60.00  0.08180  0.44089  -0.04659
    70.00  0.05788  0.46111  -0.05136
    80.00  0.02969  0.47347  -0.05528
    90.00  0.00009  0.47624  -0.05810
   100.00  -0.02064  0.47347  -0.06044
   110.00  -0.04041  0.46111  -0.06087
   120.00  -0.05711  0.44089  -0.05976
   130.00  -0.06966  0.41540  -0.05785
   140.00  -0.07783  0.38789  -0.05628
   150.00  -0.08387  0.36185  -0.05721
   160.00  -0.09335  0.34051  -0.06640
   170.00  -0.04657  0.32655  -0.05930
   180.00  0.00009  0.32169  -0.00009
EOT
