AeroDyn airfoil file.  Compatible with AeroDyn v13.0.
Interpolated thickness: 0.297

  1        Number of airfoil tables in this file
  9990     Reynolds number in millions.  For efficiency, make very large if only one table.
  0        Control setting
  10.8158  Stall angle (deg)
  -3.56189 Zero lift angle of attack (deg)
  6.00056  Cn slope for zero lift (dimensionless)
  1.50577  Cn at stall value for positive angle of attack
  -0.8     Cn at stall value for negative angle of attack
  -2.12    Angle of attack for minimum CD (deg)
  0.0359625 Minimum CD value
  -180.00  0.00001  0.12883  -0.00001
  -170.00  0.36446  0.16685  0.36999
  -160.00  0.72983  0.27591  -0.13247
  -150.00  0.65583  0.44259  -0.05828
  -140.00  0.60866  0.64600  -0.00657
  -130.00  0.54483  0.86088  0.04347
  -120.00  0.44678  1.05994  0.09314
  -110.00  0.31636  1.21793  0.13921
  -100.00  0.16188  1.31441  0.17694
   -90.00  0.00001  1.33605  0.20173
   -80.00  -0.16187  1.31441  0.22005
   -70.00  -0.31634  1.21793  0.22338
   -60.00  -0.44677  1.05994  0.21478
   -50.00  -0.54482  0.86088  0.19979
   -40.00  -0.60864  0.64600  0.18758
   -30.00  -0.65582  0.44259  0.19489
   -20.00  -0.72797  0.27572  0.26593
   -10.00  -0.29784  0.12430  0.11756
    -4.17  -0.06659  0.03615  -0.12451
    -3.17  0.03886  0.03606  -0.12636
    -2.12  0.14801  0.03596  -0.12784
    -1.08  0.25808  0.03596  -0.12951
    -0.05  0.36723  0.03606  -0.13043
    -0.04  0.36749  0.03606  -0.13043
     1.17  0.49643  0.03626  -0.13162
     2.34  0.61787  0.03642  -0.13264
     3.52  0.73971  0.03673  -0.13333
     4.69  0.85771  0.03700  -0.13316
     5.86  0.97196  0.03734  -0.13233
     7.03  1.08027  0.03792  -0.13035
     8.20  1.16921  0.03855  -0.12488
    10.82  1.20963  0.05027  -0.09706
    13.43  1.05870  0.13214  -0.08964
    16.04  1.02233  0.18283  -0.09751
    18.65  1.04566  0.23331  -0.10975
    21.26  1.03986  0.29668  -0.12967
    23.88  1.00880  0.34036  -0.15499
    26.49  0.97775  0.38403  -0.18030
    29.10  0.94669  0.42771  -0.20561
    31.71  0.92464  0.47760  -0.22424
    34.33  0.90725  0.53072  -0.23940
    36.94  0.88986  0.58383  -0.25457
    39.55  0.87247  0.63695  -0.26974
    42.16  0.84967  0.69255  -0.28275
    44.78  0.82576  0.74866  -0.29531
    47.39  0.80185  0.80477  -0.30787
    50.00  0.77793  0.86088  -0.32043
    60.00  0.63826  1.05994  -0.36325
    70.00  0.45141  1.21793  -0.40053
    80.00  0.23126  1.31441  -0.43115
    90.00  0.00001  1.33605  -0.45316
   100.00  -0.16187  1.31441  -0.47139
   110.00  -0.31634  1.21793  -0.47481
   120.00  -0.44677  1.05994  -0.46611
   130.00  -0.54482  0.86088  -0.45122
   140.00  -0.60864  0.64600  -0.43892
   150.00  -0.65582  0.44259  -0.44623
   160.00  -0.72982  0.27591  -0.51801
   170.00  -0.36444  0.16685  -0.46251
   180.00  0.00001  0.12883  -0.00001
EOT
