AeroDyn airfoil file.  Compatible with AeroDyn v13.0.
Interpolated thickness: 0.931

  1        Number of airfoil tables in this file
  9990     Reynolds number in millions.  For efficiency, make very large if only one table.
  0        Control setting
  10.6437  Stall angle (deg)
  -2.31757 Zero lift angle of attack (deg)
  0.91304  Cn slope for zero lift (dimensionless)
  0.206545 Cn at stall value for positive angle of attack
  -0.8     Cn at stall value for negative angle of attack
  -2.12    Angle of attack for minimum CD (deg)
  0.319177 Minimum CD value
  -180.00  0.00009  0.32829  -0.00009
  -170.00  0.03586  0.33202  0.03622
  -160.00  0.07172  0.34273  -0.01309
  -150.00  0.06446  0.35909  -0.00581
  -140.00  0.05983  0.37905  -0.00074
  -130.00  0.05357  0.40014  0.00418
  -120.00  0.04394  0.41968  0.00905
  -110.00  0.03114  0.43519  0.01357
  -100.00  0.01598  0.44466  0.01728
   -90.00  0.00009  0.44678  0.01971
   -80.00  -0.01580  0.44466  0.02151
   -70.00  -0.03096  0.43519  0.02183
   -60.00  -0.04376  0.41968  0.02099
   -50.00  -0.05338  0.40014  0.01952
   -40.00  -0.05965  0.37905  0.01832
   -30.00  -0.06428  0.35909  0.01904
   -20.00  -0.07136  0.34271  0.02601
   -10.00  -0.02914  0.32785  0.01145
    -4.17  -0.00645  0.31920  -0.01231
    -3.17  0.00390  0.31919  -0.01249
    -2.12  0.01462  0.31918  -0.01264
    -1.08  0.02542  0.31918  -0.01280
    -0.05  0.03613  0.31919  -0.01289
    -0.00  0.03616  0.31919  -0.01289
     1.15  0.04881  0.31921  -0.01301
     2.29  0.06074  0.31922  -0.01311
     3.44  0.07269  0.31925  -0.01318
     4.58  0.08428  0.31928  -0.01316
     5.73  0.09549  0.31931  -0.01308
     6.87  0.10612  0.31937  -0.01288
     8.02  0.11485  0.31943  -0.01235
    10.64  0.11882  0.32058  -0.00962
    13.27  0.10400  0.32862  -0.00889
    15.89  0.10043  0.33359  -0.00966
    18.51  0.10272  0.33855  -0.01086
    21.14  0.10215  0.34477  -0.01282
    23.76  0.09910  0.34905  -0.01530
    26.39  0.09606  0.35334  -0.01779
    29.01  0.09301  0.35763  -0.02027
    31.63  0.09084  0.36252  -0.02210
    34.26  0.08914  0.36774  -0.02359
    36.88  0.08743  0.37295  -0.02508
    39.50  0.08572  0.37816  -0.02657
    42.13  0.08349  0.38362  -0.02784
    44.75  0.08114  0.38913  -0.02907
    47.38  0.07879  0.39464  -0.03031
    50.00  0.07644  0.40014  -0.03154
    60.00  0.06274  0.41968  -0.03574
    70.00  0.04440  0.43519  -0.03940
    80.00  0.02279  0.44466  -0.04241
    90.00  0.00009  0.44678  -0.04457
   100.00  -0.01580  0.44466  -0.04636
   110.00  -0.03096  0.43519  -0.04669
   120.00  -0.04376  0.41968  -0.04584
   130.00  -0.05338  0.40014  -0.04438
   140.00  -0.05965  0.37905  -0.04317
   150.00  -0.06428  0.35909  -0.04389
   160.00  -0.07154  0.34273  -0.05093
   170.00  -0.03568  0.33202  -0.04549
   180.00  0.00009  0.32829  -0.00009
EOT
