AeroDyn airfoil file.  Compatible with AeroDyn v13.0.
Interpolated thickness: 0.815

  1        Number of airfoil tables in this file
  9990     Reynolds number in millions.  For efficiency, make very large if only one table.
  0        Control setting
  10.6752  Stall angle (deg)
  -3.05558 Zero lift angle of attack (deg)
  1.8534   Cn slope for zero lift (dimensionless)
  0.444164 Cn at stall value for positive angle of attack
  -0.8     Cn at stall value for negative angle of attack
  -2.12    Angle of attack for minimum CD (deg)
  0.267359 Minimum CD value
  -180.00  0.00008  0.29180  -0.00008
  -170.00  0.09598  0.30180  0.09729
  -160.00  0.19213  0.33050  -0.03493
  -150.00  0.17266  0.37437  -0.01541
  -140.00  0.16025  0.42789  -0.00180
  -130.00  0.14345  0.48444  0.01137
  -120.00  0.11765  0.53683  0.02444
  -110.00  0.08333  0.57840  0.03656
  -100.00  0.04267  0.60379  0.04649
   -90.00  0.00008  0.60949  0.05301
   -80.00  -0.04252  0.60379  0.05783
   -70.00  -0.08317  0.57840  0.05871
   -60.00  -0.11750  0.53683  0.05645
   -50.00  -0.14330  0.48444  0.05250
   -40.00  -0.16010  0.42789  0.04929
   -30.00  -0.17251  0.37437  0.05121
   -20.00  -0.19150  0.33045  0.06991
   -10.00  -0.07831  0.29061  0.03086
    -4.17  -0.01745  0.26741  -0.03284
    -3.17  0.01030  0.26738  -0.03333
    -2.12  0.03902  0.26736  -0.03372
    -1.08  0.06799  0.26736  -0.03415
    -0.05  0.09671  0.26738  -0.03440
    -0.01  0.09678  0.26738  -0.03440
     1.15  0.13071  0.26744  -0.03471
     2.30  0.16267  0.26748  -0.03498
     3.45  0.19473  0.26756  -0.03516
     4.60  0.22579  0.26763  -0.03512
     5.75  0.25585  0.26772  -0.03490
     6.90  0.28436  0.26787  -0.03438
     8.05  0.30776  0.26804  -0.03294
    10.68  0.31840  0.27112  -0.02561
    13.30  0.27868  0.29267  -0.02366
    15.92  0.26911  0.30601  -0.02573
    18.54  0.27525  0.31929  -0.02895
    21.16  0.27372  0.33597  -0.03420
    23.78  0.26555  0.34746  -0.04086
    26.41  0.25738  0.35896  -0.04752
    29.03  0.24920  0.37045  -0.05418
    31.65  0.24340  0.38358  -0.05908
    34.27  0.23882  0.39756  -0.06307
    36.89  0.23425  0.41154  -0.06707
    39.51  0.22967  0.42551  -0.07106
    42.14  0.22367  0.44014  -0.07448
    44.76  0.21738  0.45491  -0.07779
    47.38  0.21109  0.46968  -0.08109
    50.00  0.20479  0.48444  -0.08440
    60.00  0.16804  0.53683  -0.09567
    70.00  0.11887  0.57840  -0.10548
    80.00  0.06093  0.60379  -0.11353
    90.00  0.00008  0.60949  -0.11933
   100.00  -0.04252  0.60379  -0.12412
   110.00  -0.08317  0.57840  -0.12502
   120.00  -0.11750  0.53683  -0.12274
   130.00  -0.14330  0.48444  -0.11882
   140.00  -0.16010  0.42789  -0.11558
   150.00  -0.17251  0.37437  -0.11750
   160.00  -0.19198  0.33050  -0.13639
   170.00  -0.09583  0.30180  -0.12179
   180.00  0.00008  0.29180  -0.00008
EOT
