AeroDyn airfoil file.  Compatible with AeroDyn v13.0.
Interpolated thickness: 0.73

  1        Number of airfoil tables in this file
  9990     Reynolds number in millions.  For efficiency, make very large if only one table.
  0        Control setting
  10.6983  Stall angle (deg)
  -3.17661 Zero lift angle of attack (deg)
  2.57176  Cn slope for zero lift (dimensionless)
  0.622784 Cn at stall value for positive angle of attack
  -0.8     Cn at stall value for negative angle of attack
  -2.12    Angle of attack for minimum CD (deg)
  0.229388 Minimum CD value
  -180.00  0.00006  0.26506  -0.00006
  -170.00  0.14004  0.27966  0.14204
  -160.00  0.28037  0.32154  -0.05094
  -150.00  0.25195  0.38556  -0.02245
  -140.00  0.23383  0.46368  -0.00259
  -130.00  0.20931  0.54621  0.01663
  -120.00  0.17166  0.62266  0.03571
  -110.00  0.12156  0.68334  0.05340
  -100.00  0.06224  0.72040  0.06790
   -90.00  0.00006  0.72871  0.07742
   -80.00  -0.06211  0.72040  0.08445
   -70.00  -0.12144  0.68334  0.08573
   -60.00  -0.17153  0.62266  0.08243
   -50.00  -0.20919  0.54621  0.07667
   -40.00  -0.23370  0.46368  0.07198
   -30.00  -0.25182  0.38556  0.07479
   -20.00  -0.27953  0.32147  0.10207
   -10.00  -0.11433  0.26332  0.04509
    -4.17  -0.02551  0.22946  -0.04788
    -3.17  0.01499  0.22942  -0.04859
    -2.12  0.05691  0.22939  -0.04916
    -1.08  0.09918  0.22939  -0.04980
    -0.05  0.14110  0.22942  -0.05016
    -0.02  0.14120  0.22942  -0.05016
     1.15  0.19072  0.22950  -0.05061
     2.31  0.23737  0.22956  -0.05100
     3.46  0.28416  0.22968  -0.05127
     4.62  0.32948  0.22979  -0.05120
     5.77  0.37336  0.22992  -0.05088
     6.92  0.41496  0.23014  -0.05012
     8.08  0.44912  0.23038  -0.04802
    10.70  0.46464  0.23488  -0.03734
    13.32  0.40668  0.26633  -0.03449
    15.94  0.39270  0.28579  -0.03751
    18.56  0.40167  0.30518  -0.04221
    21.18  0.39944  0.32952  -0.04986
    23.80  0.38751  0.34630  -0.05959
    26.42  0.37558  0.36307  -0.06931
    29.04  0.36366  0.37984  -0.07903
    31.66  0.35519  0.39901  -0.08618
    34.28  0.34851  0.41941  -0.09201
    36.90  0.34183  0.43981  -0.09784
    39.52  0.33515  0.46021  -0.10366
    42.14  0.32639  0.48156  -0.10866
    44.76  0.31721  0.50311  -0.11348
    47.38  0.30802  0.52466  -0.11830
    50.00  0.29884  0.54621  -0.12313
    60.00  0.24520  0.62266  -0.13958
    70.00  0.17343  0.68334  -0.15389
    80.00  0.08888  0.72040  -0.16565
    90.00  0.00006  0.72871  -0.17411
   100.00  -0.06211  0.72040  -0.18111
   110.00  -0.12144  0.68334  -0.18242
   120.00  -0.17153  0.62266  -0.17908
   130.00  -0.20919  0.54621  -0.17336
   140.00  -0.23370  0.46368  -0.16864
   150.00  -0.25182  0.38556  -0.17144
   160.00  -0.28024  0.32154  -0.19901
   170.00  -0.13991  0.27966  -0.17770
   180.00  0.00006  0.26506  -0.00006
EOT
