AeroDyn airfoil file.  Compatible with AeroDyn v13.0.
Interpolated thickness: 0.804

  1        Number of airfoil tables in this file
  9990     Reynolds number in millions.  For efficiency, make very large if only one table.
  0        Control setting
  10.6782  Stall angle (deg)
  -3.08916 Zero lift angle of attack (deg)
  1.94214  Cn slope for zero lift (dimensionless)
  0.466669 Cn at stall value for positive angle of attack
  -0.8     Cn at stall value for negative angle of attack
  -2.12    Angle of attack for minimum CD (deg)
  0.262445 Minimum CD value
  -180.00  0.00007  0.28834  -0.00007
  -170.00  0.10168  0.29894  0.10308
  -160.00  0.20355  0.32934  -0.03700
  -150.00  0.18292  0.37582  -0.01632
  -140.00  0.16977  0.43253  -0.00191
  -130.00  0.15197  0.49244  0.01205
  -120.00  0.12464  0.54793  0.02590
  -110.00  0.08827  0.59198  0.03874
  -100.00  0.04521  0.61888  0.04926
   -90.00  0.00007  0.62492  0.05617
   -80.00  -0.04506  0.61888  0.06128
   -70.00  -0.08813  0.59198  0.06221
   -60.00  -0.12449  0.54793  0.05981
   -50.00  -0.15183  0.49244  0.05563
   -40.00  -0.16962  0.43253  0.05223
   -30.00  -0.18277  0.37582  0.05426
   -20.00  -0.20289  0.32929  0.07407
   -10.00  -0.08297  0.28707  0.03270
    -4.17  -0.01849  0.26250  -0.03479
    -3.17  0.01091  0.26247  -0.03530
    -2.12  0.04134  0.26244  -0.03572
    -1.08  0.07203  0.26244  -0.03618
    -0.05  0.10246  0.26247  -0.03644
    -0.01  0.10253  0.26247  -0.03644
     1.15  0.13848  0.26253  -0.03677
     2.30  0.17234  0.26257  -0.03705
     3.45  0.20631  0.26266  -0.03725
     4.60  0.23921  0.26273  -0.03720
     5.75  0.27106  0.26283  -0.03697
     6.91  0.30126  0.26299  -0.03641
     8.06  0.32605  0.26317  -0.03489
    10.68  0.33732  0.26643  -0.02713
    13.30  0.29524  0.28926  -0.02507
    15.92  0.28510  0.30339  -0.02726
    18.54  0.29161  0.31747  -0.03067
    21.16  0.28999  0.33514  -0.03623
    23.79  0.28133  0.34731  -0.04328
    26.41  0.27267  0.35949  -0.05034
    29.03  0.26401  0.37167  -0.05740
    31.65  0.25787  0.38558  -0.06259
    34.27  0.25302  0.40039  -0.06682
    36.89  0.24817  0.41519  -0.07105
    39.51  0.24332  0.43000  -0.07528
    42.14  0.23696  0.44550  -0.07890
    44.76  0.23030  0.46115  -0.08241
    47.38  0.22363  0.47679  -0.08591
    50.00  0.21696  0.49244  -0.08941
    60.00  0.17802  0.54793  -0.10135
    70.00  0.12593  0.59198  -0.11174
    80.00  0.06455  0.61888  -0.12028
    90.00  0.00007  0.62492  -0.12642
   100.00  -0.04506  0.61888  -0.13150
   110.00  -0.08813  0.59198  -0.13245
   120.00  -0.12449  0.54793  -0.13003
   130.00  -0.15183  0.49244  -0.12588
   140.00  -0.16962  0.43253  -0.12245
   150.00  -0.18277  0.37582  -0.12448
   160.00  -0.20340  0.32934  -0.14450
   170.00  -0.10154  0.29894  -0.12902
   180.00  0.00007  0.28834  -0.00007
EOT
