AeroDyn airfoil file.  Compatible with AeroDyn v13.0.
Interpolated thickness: 0.211

  1        Number of airfoil tables in this file
  9990     Reynolds number in millions.  For efficiency, make very large if only one table.
  0        Control setting
  8.66387  Stall angle (deg)
  -4.339   Zero lift angle of attack (deg)
  6.35113  Cn slope for zero lift (dimensionless)
  1.44134  Cn at stall value for positive angle of attack
  -0.8     Cn at stall value for negative angle of attack
  -2.02    Angle of attack for minimum CD (deg)
  0.00896714 Minimum CD value
  -180.00  0.00000  0.14408  0.00000
  -170.00  0.39690  0.18465  0.40000
  -160.00  0.79480  0.30105  -0.14088
  -150.00  0.70983  0.47881  -0.06254
  -140.00  0.65883  0.69540  -0.00702
  -130.00  0.58941  0.92359  0.04671
  -120.00  0.48341  1.13407  0.09962
  -110.00  0.34200  1.29965  0.14801
  -100.00  0.17500  1.39836  0.18695
   -90.00  0.00000  1.41600  0.21147
   -80.00  -0.17500  1.39836  0.23181
   -70.00  -0.34200  1.29965  0.23603
   -60.00  -0.48341  1.13407  0.22723
   -50.00  -0.58941  0.92359  0.21128
   -40.00  -0.65883  0.69540  0.19783
   -30.00  -0.70983  0.47881  0.20461
   -20.00  -0.79321  0.30081  0.28008
   -10.00  -0.29797  0.10546  0.09586
    -6.04  -0.11938  0.02819  -0.09007
    -5.04  -0.04289  0.01741  -0.12072
    -4.09  0.02821  0.00900  -0.14468
    -3.02  0.14716  0.00898  -0.14639
    -2.02  0.25702  0.00897  -0.14754
    -1.03  0.36687  0.00901  -0.14869
    -0.03  0.47753  0.00915  -0.14966
     1.08  0.60207  0.00937  -0.15030
     2.16  0.72153  0.00964  -0.15109
     3.24  0.84023  0.01001  -0.15175
     4.33  0.95390  0.01034  -0.15098
     5.41  1.06400  0.01086  -0.14955
     6.49  1.16001  0.01144  -0.14565
     8.66  1.26011  0.01799  -0.12725
    10.84  1.24694  0.05136  -0.11312
    13.02  1.27845  0.08981  -0.11132
    15.19  1.28300  0.13174  -0.11121
    17.37  1.21851  0.21301  -0.12398
    19.54  1.17971  0.27904  -0.13675
    21.72  1.12171  0.33166  -0.16341
    23.89  1.09338  0.37039  -0.18549
    26.07  1.06504  0.40912  -0.20758
    28.24  1.03670  0.44785  -0.22966
    30.42  1.01234  0.48932  -0.24880
    32.60  0.99490  0.53535  -0.26325
    34.77  0.97914  0.58242  -0.27666
    36.95  0.96339  0.62950  -0.29006
    39.12  0.94763  0.67658  -0.30347
    41.30  0.92833  0.72521  -0.31550
    43.47  0.90660  0.77481  -0.32662
    45.65  0.88487  0.82440  -0.33774
    47.82  0.86314  0.87400  -0.34887
    50.00  0.84141  0.92359  -0.35999
    60.00  0.69041  1.13407  -0.40513
    70.00  0.48841  1.29965  -0.44390
    80.00  0.25000  1.39836  -0.47501
    90.00  0.00000  1.41600  -0.49653
   100.00  -0.17500  1.39836  -0.51681
   110.00  -0.34200  1.29965  -0.52109
   120.00  -0.48341  1.13407  -0.51223
   130.00  -0.58941  0.92359  -0.49633
   140.00  -0.65883  0.69540  -0.48283
   150.00  -0.70983  0.47881  -0.48961
   160.00  -0.79480  0.30105  -0.56568
   170.00  -0.39690  0.18465  -0.50000
   180.00  0.00000  0.14408  0.00000
EOT
