AeroDyn airfoil file.  Compatible with AeroDyn v13.0.
Interpolated thickness: 0.683

  1        Number of airfoil tables in this file
  9990     Reynolds number in millions.  For efficiency, make very large if only one table.
  0        Control setting
  10.711   Stall angle (deg)
  -3.2509  Zero lift angle of attack (deg)
  2.95184  Cn slope for zero lift (dimensionless)
  0.719309 Cn at stall value for positive angle of attack
  -0.8     Cn at stall value for negative angle of attack
  -2.12    Angle of attack for minimum CD (deg)
  0.208393 Minimum CD value
  -180.00  0.00006  0.25027  -0.00006
  -170.00  0.16440  0.26741  0.16678
  -160.00  0.32915  0.31659  -0.05979
  -150.00  0.29579  0.39175  -0.02634
  -140.00  0.27451  0.48347  -0.00302
  -130.00  0.24573  0.58037  0.01955
  -120.00  0.20152  0.67013  0.04194
  -110.00  0.14271  0.74137  0.06272
  -100.00  0.07305  0.78487  0.07973
   -90.00  0.00006  0.79463  0.09091
   -80.00  -0.07294  0.78487  0.09917
   -70.00  -0.14259  0.74137  0.10067
   -60.00  -0.20140  0.67013  0.09679
   -50.00  -0.24562  0.58037  0.09004
   -40.00  -0.27440  0.48347  0.08453
   -30.00  -0.29567  0.39175  0.08783
   -20.00  -0.32820  0.31651  0.11986
   -10.00  -0.13425  0.24823  0.05296
    -4.17  -0.02997  0.20848  -0.05620
    -3.17  0.01758  0.20843  -0.05703
    -2.12  0.06680  0.20839  -0.05770
    -1.08  0.11643  0.20839  -0.05845
    -0.05  0.16565  0.20843  -0.05887
    -0.02  0.16576  0.20843  -0.05887
     1.16  0.22391  0.20853  -0.05941
     2.31  0.27867  0.20860  -0.05986
     3.47  0.33361  0.20874  -0.06018
     4.62  0.38682  0.20886  -0.06010
     5.78  0.43833  0.20901  -0.05973
     6.94  0.48718  0.20928  -0.05883
     8.09  0.52728  0.20956  -0.05637
    10.71  0.54551  0.21484  -0.04382
    13.33  0.47745  0.25176  -0.04048
    15.95  0.46105  0.27462  -0.04403
    18.57  0.47157  0.29738  -0.04954
    21.19  0.46895  0.32596  -0.05853
    23.81  0.45495  0.34565  -0.06994
    26.43  0.44095  0.36535  -0.08136
    29.05  0.42694  0.38504  -0.09277
    31.67  0.41700  0.40754  -0.10117
    34.28  0.40916  0.43149  -0.10801
    36.90  0.40132  0.45544  -0.11485
    39.52  0.39347  0.47939  -0.12169
    42.14  0.38319  0.50446  -0.12755
    44.76  0.37241  0.52976  -0.13322
    47.38  0.36163  0.55507  -0.13888
    50.00  0.35084  0.58037  -0.14454
    60.00  0.28786  0.67013  -0.16386
    70.00  0.20361  0.74137  -0.18066
    80.00  0.10433  0.78487  -0.19447
    90.00  0.00006  0.79463  -0.20440
   100.00  -0.07294  0.78487  -0.21262
   110.00  -0.14259  0.74137  -0.21416
   120.00  -0.20140  0.67013  -0.21024
   130.00  -0.24562  0.58037  -0.20352
   140.00  -0.27440  0.48347  -0.19797
   150.00  -0.29567  0.39175  -0.20127
   160.00  -0.32904  0.31659  -0.23364
   170.00  -0.16428  0.26741  -0.20861
   180.00  0.00006  0.25027  -0.00006
EOT
