AeroDyn airfoil file.  Compatible with AeroDyn v13.0.
Interpolated thickness: 0.33

  1        Number of airfoil tables in this file
  9990     Reynolds number in millions.  For efficiency, make very large if only one table.
  0        Control setting
  10.8068  Stall angle (deg)
  -3.54442 Zero lift angle of attack (deg)
  5.74489  Cn slope for zero lift (dimensionless)
  1.43896  Cn at stall value for positive angle of attack
  -0.8     Cn at stall value for negative angle of attack
  -2.12    Angle of attack for minimum CD (deg)
  0.0507039 Minimum CD value
  -180.00  0.00001  0.13921  -0.00001
  -170.00  0.34735  0.17545  0.35262
  -160.00  0.69558  0.27939  -0.12625
  -150.00  0.62505  0.43825  -0.05555
  -140.00  0.58009  0.63211  -0.00627
  -130.00  0.51926  0.83690  0.04142
  -120.00  0.42581  1.02661  0.08876
  -110.00  0.30151  1.17719  0.13267
  -100.00  0.15429  1.26913  0.16863
   -90.00  0.00001  1.28976  0.19226
   -80.00  -0.15426  1.26913  0.20972
   -70.00  -0.30149  1.17719  0.21289
   -60.00  -0.42579  1.02661  0.20469
   -50.00  -0.51924  0.83690  0.19041
   -40.00  -0.58007  0.63211  0.17877
   -30.00  -0.62503  0.43825  0.18574
   -20.00  -0.69379  0.27921  0.25344
   -10.00  -0.28386  0.13489  0.11204
    -4.17  -0.06346  0.05088  -0.11867
    -3.17  0.03704  0.05079  -0.12044
    -2.12  0.14106  0.05070  -0.12185
    -1.08  0.24597  0.05070  -0.12343
    -0.05  0.35000  0.05079  -0.12431
    -0.04  0.35024  0.05079  -0.12432
     1.17  0.47313  0.05098  -0.12545
     2.34  0.58888  0.05114  -0.12642
     3.51  0.70499  0.05144  -0.12708
     4.68  0.81746  0.05169  -0.12691
     5.85  0.92634  0.05202  -0.12612
     7.02  1.02957  0.05257  -0.12423
     8.19  1.11433  0.05317  -0.11903
    10.81  1.15285  0.06434  -0.09251
    13.42  1.00901  0.14237  -0.08544
    16.03  0.97434  0.19068  -0.09294
    18.65  0.99658  0.23879  -0.10460
    21.26  0.99105  0.29919  -0.12359
    23.87  0.96145  0.34081  -0.14771
    26.48  0.93185  0.38243  -0.17184
    29.10  0.90226  0.42406  -0.19596
    31.71  0.88124  0.47161  -0.21371
    34.32  0.86467  0.52224  -0.22817
    36.94  0.84810  0.57286  -0.24263
    39.55  0.83152  0.62348  -0.25709
    42.16  0.80979  0.67647  -0.26948
    44.77  0.78700  0.72994  -0.28145
    47.39  0.76421  0.78342  -0.29342
    50.00  0.74142  0.83690  -0.30539
    60.00  0.60830  1.02661  -0.34621
    70.00  0.43022  1.17719  -0.38174
    80.00  0.22041  1.26913  -0.41092
    90.00  0.00001  1.28976  -0.43190
   100.00  -0.15426  1.26913  -0.44926
   110.00  -0.30149  1.17719  -0.45253
   120.00  -0.42579  1.02661  -0.44424
   130.00  -0.51924  0.83690  -0.43005
   140.00  -0.58007  0.63211  -0.41832
   150.00  -0.62503  0.43825  -0.42529
   160.00  -0.69555  0.27939  -0.49370
   170.00  -0.34733  0.17545  -0.44080
   180.00  0.00001  0.13921  -0.00001
EOT
