AeroDyn airfoil file.  Compatible with AeroDyn v13.0.
Interpolated thickness: 0.707

  1        Number of airfoil tables in this file
  9990     Reynolds number in millions.  For efficiency, make very large if only one table.
  0        Control setting
  10.7045  Stall angle (deg)
  -3.21516 Zero lift angle of attack (deg)
  2.758    Cn slope for zero lift (dimensionless)
  0.670041 Cn at stall value for positive angle of attack
  -0.8     Cn at stall value for negative angle of attack
  -2.12    Angle of attack for minimum CD (deg)
  0.219114 Minimum CD value
  -180.00  0.00006  0.25782  -0.00006
  -170.00  0.15196  0.27367  0.15415
  -160.00  0.30424  0.31912  -0.05527
  -150.00  0.27340  0.38859  -0.02435
  -140.00  0.25374  0.47337  -0.00280
  -130.00  0.22714  0.56293  0.01806
  -120.00  0.18627  0.64589  0.03876
  -110.00  0.13191  0.71174  0.05796
  -100.00  0.06753  0.75195  0.07369
   -90.00  0.00006  0.76097  0.08402
   -80.00  -0.06741  0.75195  0.09166
   -70.00  -0.13179  0.71174  0.09304
   -60.00  -0.18615  0.64589  0.08946
   -50.00  -0.22701  0.56293  0.08321
   -40.00  -0.25361  0.47337  0.07812
   -30.00  -0.27328  0.38859  0.08117
   -20.00  -0.30335  0.31904  0.11078
   -10.00  -0.12408  0.25593  0.04894
    -4.17  -0.02770  0.21919  -0.05195
    -3.17  0.01625  0.21915  -0.05272
    -2.12  0.06175  0.21911  -0.05334
    -1.08  0.10762  0.21911  -0.05404
    -0.05  0.15312  0.21915  -0.05442
    -0.02  0.15322  0.21915  -0.05442
     1.15  0.20696  0.21924  -0.05492
     2.31  0.25758  0.21930  -0.05534
     3.46  0.30836  0.21944  -0.05563
     4.62  0.35754  0.21954  -0.05556
     5.77  0.40516  0.21969  -0.05521
     6.93  0.45030  0.21993  -0.05439
     8.08  0.48737  0.22019  -0.05211
    10.70  0.50421  0.22508  -0.04051
    13.32  0.44131  0.25920  -0.03742
    15.94  0.42615  0.28033  -0.04070
    18.56  0.43587  0.30137  -0.04580
    21.18  0.43346  0.32778  -0.05410
    23.80  0.42051  0.34598  -0.06465
    26.42  0.40757  0.36418  -0.07520
    29.04  0.39463  0.38239  -0.08575
    31.66  0.38544  0.40318  -0.09352
    34.28  0.37819  0.42532  -0.09984
    36.90  0.37094  0.44746  -0.10616
    39.52  0.36369  0.46960  -0.11248
    42.14  0.35419  0.49277  -0.11790
    44.76  0.34422  0.51615  -0.12314
    47.38  0.33426  0.53954  -0.12837
    50.00  0.32429  0.56293  -0.13361
    60.00  0.26607  0.64589  -0.15146
    70.00  0.18820  0.71174  -0.16699
    80.00  0.09644  0.75195  -0.17976
    90.00  0.00006  0.76097  -0.18893
   100.00  -0.06741  0.75195  -0.19653
   110.00  -0.13179  0.71174  -0.19795
   120.00  -0.18615  0.64589  -0.19433
   130.00  -0.22701  0.56293  -0.18812
   140.00  -0.25361  0.47337  -0.18299
   150.00  -0.27328  0.38859  -0.18604
   160.00  -0.30412  0.31912  -0.21596
   170.00  -0.15184  0.27367  -0.19282
   180.00  0.00006  0.25782  -0.00006
EOT
