AeroDyn airfoil file.  Compatible with AeroDyn v13.0.
Interpolated thickness: 0.327

  1        Number of airfoil tables in this file
  9990     Reynolds number in millions.  For efficiency, make very large if only one table.
  0        Control setting
  10.8076  Stall angle (deg)
  -3.54605 Zero lift angle of attack (deg)
  5.76817  Cn slope for zero lift (dimensionless)
  1.44504  Cn at stall value for positive angle of attack
  -0.8     Cn at stall value for negative angle of attack
  -2.12    Angle of attack for minimum CD (deg)
  0.0493638 Minimum CD value
  -180.00  0.00001  0.13827  -0.00001
  -170.00  0.34891  0.17467  0.35420
  -160.00  0.69869  0.27907  -0.12682
  -150.00  0.62785  0.43864  -0.05580
  -140.00  0.58269  0.63337  -0.00630
  -130.00  0.52159  0.83908  0.04161
  -120.00  0.42772  1.02964  0.08916
  -110.00  0.30286  1.18089  0.13326
  -100.00  0.15498  1.27325  0.16939
   -90.00  0.00001  1.29397  0.19312
   -80.00  -0.15496  1.27325  0.21066
   -70.00  -0.30284  1.18089  0.21384
   -60.00  -0.42770  1.02964  0.20561
   -50.00  -0.52156  0.83908  0.19126
   -40.00  -0.58266  0.63337  0.17957
   -30.00  -0.62783  0.43864  0.18657
   -20.00  -0.69690  0.27889  0.25458
   -10.00  -0.28513  0.13393  0.11254
    -4.17  -0.06375  0.04954  -0.11920
    -3.17  0.03720  0.04945  -0.12097
    -2.12  0.14170  0.04936  -0.12239
    -1.08  0.24707  0.04936  -0.12399
    -0.05  0.35157  0.04945  -0.12487
    -0.04  0.35181  0.04945  -0.12487
     1.17  0.47525  0.04965  -0.12601
     2.34  0.59151  0.04980  -0.12698
     3.51  0.70815  0.05010  -0.12765
     4.68  0.82112  0.05035  -0.12748
     5.85  0.93048  0.05068  -0.12669
     7.02  1.03417  0.05124  -0.12479
     8.19  1.11932  0.05184  -0.11956
    10.81  1.15801  0.06306  -0.09292
    13.42  1.01353  0.14144  -0.08582
    16.03  0.97870  0.18996  -0.09336
    18.65  1.00104  0.23829  -0.10507
    21.26  0.99549  0.29896  -0.12414
    23.87  0.96576  0.34077  -0.14838
    26.48  0.93603  0.38258  -0.17261
    29.10  0.90630  0.42439  -0.19684
    31.71  0.88519  0.47216  -0.21467
    34.32  0.86854  0.52301  -0.22919
    36.94  0.85189  0.57385  -0.24371
    39.55  0.83524  0.62470  -0.25824
    42.16  0.81342  0.67793  -0.27069
    44.77  0.79052  0.73165  -0.28271
    47.39  0.76763  0.78536  -0.29473
    50.00  0.74474  0.83908  -0.30676
    60.00  0.61102  1.02964  -0.34776
    70.00  0.43215  1.18089  -0.38344
    80.00  0.22139  1.27325  -0.41276
    90.00  0.00001  1.29397  -0.43383
   100.00  -0.15496  1.27325  -0.45128
   110.00  -0.30284  1.18089  -0.45455
   120.00  -0.42770  1.02964  -0.44623
   130.00  -0.52156  0.83908  -0.43197
   140.00  -0.58266  0.63337  -0.42019
   150.00  -0.62783  0.43864  -0.42719
   160.00  -0.69867  0.27907  -0.49591
   170.00  -0.34889  0.17467  -0.44277
   180.00  0.00001  0.13827  -0.00001
EOT
