AeroDyn airfoil file.  Compatible with AeroDyn v13.0.
Interpolated thickness: 0.901

  1        Number of airfoil tables in this file
  9990     Reynolds number in millions.  For efficiency, make very large if only one table.
  0        Control setting
  10.6519  Stall angle (deg)
  -2.62169 Zero lift angle of attack (deg)
  1.15704  Cn slope for zero lift (dimensionless)
  0.268048 Cn at stall value for positive angle of attack
  -0.8     Cn at stall value for negative angle of attack
  -2.12    Angle of attack for minimum CD (deg)
  0.305776 Minimum CD value
  -180.00  0.00009  0.31885  -0.00009
  -170.00  0.05141  0.32421  0.05202
  -160.00  0.10286  0.33957  -0.01874
  -150.00  0.09244  0.36304  -0.00829
  -140.00  0.08580  0.39168  -0.00101
  -130.00  0.07681  0.42194  0.00604
  -120.00  0.06300  0.44998  0.01303
  -110.00  0.04464  0.47223  0.01952
  -100.00  0.02288  0.48581  0.02483
   -90.00  0.00009  0.48886  0.02832
   -80.00  -0.02271  0.48581  0.03090
   -70.00  -0.04446  0.47223  0.03137
   -60.00  -0.06283  0.44998  0.03016
   -50.00  -0.07664  0.42194  0.02805
   -40.00  -0.08563  0.39168  0.02633
   -30.00  -0.09227  0.36304  0.02736
   -20.00  -0.10243  0.33954  0.03736
   -10.00  -0.04186  0.31822  0.01647
    -4.17  -0.00929  0.30580  -0.01762
    -3.17  0.00556  0.30579  -0.01788
    -2.12  0.02093  0.30578  -0.01809
    -1.08  0.03643  0.30578  -0.01832
    -0.05  0.05180  0.30579  -0.01845
    -0.01  0.05184  0.30579  -0.01845
     1.15  0.07000  0.30582  -0.01862
     2.29  0.08710  0.30584  -0.01876
     3.44  0.10426  0.30588  -0.01886
     4.59  0.12087  0.30592  -0.01884
     5.73  0.13696  0.30597  -0.01872
     6.88  0.15222  0.30605  -0.01844
     8.03  0.16474  0.30614  -0.01767
    10.65  0.17043  0.30779  -0.01375
    13.28  0.14918  0.31932  -0.01271
    15.90  0.14406  0.32646  -0.01382
    18.52  0.14734  0.33357  -0.01554
    21.14  0.14652  0.34249  -0.01835
    23.77  0.14215  0.34864  -0.02191
    26.39  0.13778  0.35479  -0.02548
    29.01  0.13340  0.36094  -0.02904
    31.64  0.13030  0.36797  -0.03166
    34.26  0.12785  0.37545  -0.03380
    36.88  0.12540  0.38293  -0.03594
    39.51  0.12295  0.39041  -0.03807
    42.13  0.11974  0.39824  -0.03990
    44.75  0.11637  0.40614  -0.04167
    47.38  0.11301  0.41404  -0.04344
    50.00  0.10964  0.42194  -0.04521
    60.00  0.08997  0.44998  -0.05124
    70.00  0.06366  0.47223  -0.05649
    80.00  0.03265  0.48581  -0.06080
    90.00  0.00009  0.48886  -0.06390
   100.00  -0.02271  0.48581  -0.06647
   110.00  -0.04446  0.47223  -0.06695
   120.00  -0.06283  0.44998  -0.06573
   130.00  -0.07664  0.42194  -0.06363
   140.00  -0.08563  0.39168  -0.06190
   150.00  -0.09227  0.36304  -0.06293
   160.00  -0.10269  0.33957  -0.07303
   170.00  -0.05124  0.32421  -0.06522
   180.00  0.00009  0.31885  -0.00009
EOT
