AeroDyn airfoil file.  Compatible with AeroDyn v13.0.
Interpolated thickness: 0.693

  1        Number of airfoil tables in this file
  9990     Reynolds number in millions.  For efficiency, make very large if only one table.
  0        Control setting
  10.7083  Stall angle (deg)
  -3.23651 Zero lift angle of attack (deg)
  2.87114  Cn slope for zero lift (dimensionless)
  0.698786 Cn at stall value for positive angle of attack
  -0.8     Cn at stall value for negative angle of attack
  -2.12    Angle of attack for minimum CD (deg)
  0.21286  Minimum CD value
  -180.00  0.00006  0.25342  -0.00006
  -170.00  0.15921  0.27002  0.16152
  -160.00  0.31877  0.31764  -0.05790
  -150.00  0.28646  0.39044  -0.02551
  -140.00  0.26586  0.47926  -0.00293
  -130.00  0.23798  0.57310  0.01893
  -120.00  0.19517  0.66003  0.04062
  -110.00  0.13821  0.72902  0.06073
  -100.00  0.07075  0.77116  0.07722
   -90.00  0.00006  0.78061  0.08804
   -80.00  -0.07063  0.77116  0.09604
   -70.00  -0.13809  0.72902  0.09749
   -60.00  -0.19505  0.66003  0.09374
   -50.00  -0.23787  0.57310  0.08719
   -40.00  -0.26574  0.47926  0.08186
   -30.00  -0.28634  0.39044  0.08505
   -20.00  -0.31785  0.31756  0.11608
   -10.00  -0.13001  0.25144  0.05128
    -4.17  -0.02902  0.21294  -0.05443
    -3.17  0.01703  0.21290  -0.05524
    -2.12  0.06469  0.21286  -0.05589
    -1.08  0.11276  0.21286  -0.05661
    -0.05  0.16043  0.21290  -0.05702
    -0.02  0.16054  0.21290  -0.05702
     1.16  0.21685  0.21299  -0.05754
     2.31  0.26988  0.21306  -0.05798
     3.47  0.32309  0.21320  -0.05828
     4.62  0.37462  0.21331  -0.05821
     5.78  0.42451  0.21346  -0.05784
     6.93  0.47181  0.21371  -0.05698
     8.09  0.51065  0.21399  -0.05459
    10.71  0.52830  0.21911  -0.04244
    13.33  0.46239  0.25486  -0.03920
    15.95  0.44651  0.27700  -0.04264
    18.57  0.45670  0.29904  -0.04798
    21.19  0.45416  0.32672  -0.05668
    23.81  0.44060  0.34579  -0.06774
    26.42  0.42704  0.36486  -0.07879
    29.04  0.41348  0.38393  -0.08985
    31.66  0.40385  0.40572  -0.09798
    34.28  0.39625  0.42892  -0.10460
    36.90  0.38866  0.45212  -0.11123
    39.52  0.38106  0.47531  -0.11785
    42.14  0.37111  0.49959  -0.12353
    44.76  0.36066  0.52409  -0.12902
    47.38  0.35022  0.54860  -0.13450
    50.00  0.33978  0.57310  -0.13999
    60.00  0.27878  0.66003  -0.15869
    70.00  0.19719  0.72902  -0.17497
    80.00  0.10105  0.77116  -0.18834
    90.00  0.00006  0.78061  -0.19795
   100.00  -0.07063  0.77116  -0.20591
   110.00  -0.13809  0.72902  -0.20741
   120.00  -0.19505  0.66003  -0.20361
   130.00  -0.23787  0.57310  -0.19711
   140.00  -0.26574  0.47926  -0.19173
   150.00  -0.28634  0.39044  -0.19492
   160.00  -0.31865  0.31764  -0.22627
   170.00  -0.15910  0.27002  -0.20203
   180.00  0.00006  0.25342  -0.00006
EOT
