AeroDyn airfoil file.  Compatible with AeroDyn v13.0.
Interpolated thickness: 0.86

  1        Number of airfoil tables in this file
  9990     Reynolds number in millions.  For efficiency, make very large if only one table.
  0        Control setting
  10.663   Stall angle (deg)
  -2.87805 Zero lift angle of attack (deg)
  1.4896   Cn slope for zero lift (dimensionless)
  0.352046 Cn at stall value for positive angle of attack
  -0.8     Cn at stall value for negative angle of attack
  -2.12    Angle of attack for minimum CD (deg)
  0.287461 Minimum CD value
  -180.00  0.00008  0.30596  -0.00008
  -170.00  0.07266  0.31353  0.07360
  -160.00  0.14542  0.33524  -0.02646
  -150.00  0.13069  0.36844  -0.01169
  -140.00  0.12129  0.40895  -0.00139
  -130.00  0.10858  0.45174  0.00858
  -120.00  0.08906  0.49138  0.01847
  -110.00  0.06308  0.52284  0.02764
  -100.00  0.03232  0.54206  0.03516
   -90.00  0.00008  0.54637  0.04009
   -80.00  -0.03216  0.54206  0.04374
   -70.00  -0.06292  0.52284  0.04441
   -60.00  -0.08889  0.49138  0.04269
   -50.00  -0.10842  0.45174  0.03971
   -40.00  -0.12113  0.40895  0.03728
   -30.00  -0.13052  0.36844  0.03873
   -20.00  -0.14489  0.33521  0.05288
   -10.00  -0.05923  0.30505  0.02333
    -4.17  -0.01318  0.28750  -0.02488
    -3.17  0.00782  0.28748  -0.02524
    -2.12  0.02956  0.28746  -0.02554
    -1.08  0.05148  0.28746  -0.02587
    -0.05  0.07321  0.28748  -0.02606
    -0.01  0.07326  0.28748  -0.02606
     1.15  0.09894  0.28752  -0.02629
     2.30  0.12313  0.28755  -0.02649
     3.45  0.14739  0.28761  -0.02663
     4.59  0.17089  0.28767  -0.02660
     5.74  0.19364  0.28773  -0.02643
     6.89  0.21521  0.28785  -0.02604
     8.04  0.23292  0.28798  -0.02495
    10.66  0.24097  0.29031  -0.01941
    13.29  0.21092  0.30661  -0.01793
    15.91  0.20367  0.31671  -0.01950
    18.53  0.20832  0.32676  -0.02194
    21.15  0.20716  0.33938  -0.02590
    23.78  0.20098  0.34808  -0.03094
    26.40  0.19480  0.35678  -0.03599
    29.02  0.18861  0.36548  -0.04103
    31.64  0.18422  0.37541  -0.04474
    34.27  0.18076  0.38599  -0.04776
    36.89  0.17729  0.39657  -0.05078
    39.51  0.17383  0.40714  -0.05380
    42.13  0.16929  0.41822  -0.05639
    44.76  0.16453  0.42939  -0.05889
    47.38  0.15976  0.44057  -0.06139
    50.00  0.15500  0.45174  -0.06389
    60.00  0.12719  0.49138  -0.07242
    70.00  0.08998  0.52284  -0.07984
    80.00  0.04613  0.54206  -0.08594
    90.00  0.00008  0.54637  -0.09033
   100.00  -0.03216  0.54206  -0.09396
   110.00  -0.06292  0.52284  -0.09464
   120.00  -0.08889  0.49138  -0.09291
   130.00  -0.10842  0.45174  -0.08994
   140.00  -0.12113  0.40895  -0.08749
   150.00  -0.13052  0.36844  -0.08894
   160.00  -0.14526  0.33524  -0.10324
   170.00  -0.07250  0.31353  -0.09219
   180.00  0.00008  0.30596  -0.00008
EOT
