AeroDyn airfoil file.  Compatible with AeroDyn v13.0.
Interpolated thickness: 0.375

  1        Number of airfoil tables in this file
  9990     Reynolds number in millions.  For efficiency, make very large if only one table.
  0        Control setting
  10.7946  Stall angle (deg)
  -3.51913 Zero lift angle of attack (deg)
  5.39478  Cn slope for zero lift (dimensionless)
  1.34773  Cn at stall value for positive angle of attack
  -0.8     Cn at stall value for negative angle of attack
  -2.12    Angle of attack for minimum CD (deg)
  0.0708059 Minimum CD value
  -180.00  0.00002  0.15337  -0.00002
  -170.00  0.32403  0.18717  0.32893
  -160.00  0.64887  0.28413  -0.11778
  -150.00  0.58308  0.43232  -0.05183
  -140.00  0.54114  0.61316  -0.00586
  -130.00  0.48439  0.80419  0.03863
  -120.00  0.39722  0.98117  0.08279
  -110.00  0.28127  1.12163  0.12375
  -100.00  0.14393  1.20740  0.15730
   -90.00  0.00002  1.22664  0.17934
   -80.00  -0.14390  1.20740  0.19562
   -70.00  -0.28123  1.12163  0.19858
   -60.00  -0.39719  0.98117  0.19094
   -50.00  -0.48436  0.80419  0.17761
   -40.00  -0.54110  0.61316  0.16676
   -30.00  -0.58304  0.43232  0.17326
   -20.00  -0.64719  0.28396  0.23641
   -10.00  -0.26478  0.14934  0.10451
    -4.17  -0.05919  0.07097  -0.11071
    -3.17  0.03456  0.07089  -0.11235
    -2.12  0.13160  0.07081  -0.11367
    -1.08  0.22946  0.07081  -0.11515
    -0.05  0.32650  0.07089  -0.11597
    -0.04  0.32672  0.07089  -0.11597
     1.17  0.44136  0.07107  -0.11703
     2.34  0.54933  0.07121  -0.11793
     3.51  0.65765  0.07149  -0.11855
     4.67  0.76256  0.07173  -0.11839
     5.84  0.86413  0.07203  -0.11766
     7.01  0.96042  0.07255  -0.11590
     8.18  1.03949  0.07311  -0.11104
    10.79  1.07543  0.08353  -0.08630
    13.41  0.94125  0.15631  -0.07971
    16.02  0.90891  0.20138  -0.08670
    18.64  0.92965  0.24626  -0.09758
    21.25  0.92449  0.30260  -0.11530
    23.86  0.89688  0.34143  -0.13780
    26.48  0.86927  0.38026  -0.16030
    29.09  0.84166  0.41908  -0.18281
    31.70  0.82206  0.46345  -0.19937
    34.32  0.80660  0.51067  -0.21285
    36.93  0.79114  0.55789  -0.22634
    39.55  0.77568  0.60511  -0.23982
    42.16  0.75541  0.65454  -0.25139
    44.77  0.73415  0.70443  -0.26255
    47.39  0.71289  0.75431  -0.27372
    50.00  0.69163  0.80419  -0.28489
    60.00  0.56745  0.98117  -0.32296
    70.00  0.40133  1.12163  -0.35610
    80.00  0.20561  1.20740  -0.38332
    90.00  0.00002  1.22664  -0.40290
   100.00  -0.14390  1.20740  -0.41910
   110.00  -0.28123  1.12163  -0.42214
   120.00  -0.39719  0.98117  -0.41441
   130.00  -0.48436  0.80419  -0.40117
   140.00  -0.54110  0.61316  -0.39023
   150.00  -0.58304  0.43232  -0.39673
   160.00  -0.64883  0.28413  -0.46054
   170.00  -0.32400  0.18717  -0.41120
   180.00  0.00002  0.15337  -0.00002
EOT
