AeroDyn airfoil file.  Compatible with AeroDyn v13.0.
Interpolated thickness: 0.833

  1        Number of airfoil tables in this file
  9990     Reynolds number in millions.  For efficiency, make very large if only one table.
  0        Control setting
  10.6703  Stall angle (deg)
  -2.99338 Zero lift angle of attack (deg)
  1.70803  Cn slope for zero lift (dimensionless)
  0.407326 Cn at stall value for positive angle of attack
  -0.8     Cn at stall value for negative angle of attack
  -2.12    Angle of attack for minimum CD (deg)
  0.275399 Minimum CD value
  -180.00  0.00008  0.29746  -0.00008
  -170.00  0.08665  0.30649  0.08782
  -160.00  0.17345  0.33240  -0.03154
  -150.00  0.15587  0.37200  -0.01392
  -140.00  0.14466  0.42032  -0.00164
  -130.00  0.12950  0.47136  0.01025
  -120.00  0.10621  0.51865  0.02205
  -110.00  0.07523  0.55618  0.03299
  -100.00  0.03853  0.57910  0.04196
   -90.00  0.00008  0.58424  0.04785
   -80.00  -0.03838  0.57910  0.05220
   -70.00  -0.07507  0.55618  0.05299
   -60.00  -0.10605  0.51865  0.05094
   -50.00  -0.12935  0.47136  0.04739
   -40.00  -0.14451  0.42032  0.04448
   -30.00  -0.15572  0.37200  0.04622
   -20.00  -0.17285  0.33236  0.06310
   -10.00  -0.07068  0.29638  0.02785
    -4.17  -0.01574  0.27544  -0.02965
    -3.17  0.00931  0.27542  -0.03009
    -2.12  0.03524  0.27540  -0.03045
    -1.08  0.06138  0.27540  -0.03084
    -0.05  0.08731  0.27542  -0.03106
    -0.01  0.08737  0.27542  -0.03106
     1.15  0.11800  0.27547  -0.03134
     2.30  0.14685  0.27551  -0.03158
     3.45  0.17580  0.27558  -0.03175
     4.60  0.20383  0.27564  -0.03171
     5.75  0.23097  0.27573  -0.03151
     6.90  0.25670  0.27586  -0.03104
     8.05  0.27783  0.27601  -0.02974
    10.67  0.28743  0.27880  -0.02313
    13.29  0.25158  0.29825  -0.02137
    15.91  0.24293  0.31029  -0.02324
    18.54  0.24848  0.32228  -0.02615
    21.16  0.24710  0.33733  -0.03088
    23.78  0.23972  0.34771  -0.03689
    26.40  0.23234  0.35808  -0.04291
    29.02  0.22497  0.36846  -0.04892
    31.65  0.21973  0.38031  -0.05334
    34.27  0.21560  0.39293  -0.05695
    36.89  0.21147  0.40555  -0.06055
    39.51  0.20733  0.41817  -0.06415
    42.13  0.20192  0.43137  -0.06724
    44.76  0.19624  0.44470  -0.07023
    47.38  0.19056  0.45803  -0.07321
    50.00  0.18488  0.47136  -0.07619
    60.00  0.15170  0.51865  -0.08637
    70.00  0.10731  0.55618  -0.09522
    80.00  0.05501  0.57910  -0.10250
    90.00  0.00008  0.58424  -0.10773
   100.00  -0.03838  0.57910  -0.11206
   110.00  -0.07507  0.55618  -0.11287
   120.00  -0.10605  0.51865  -0.11080
   130.00  -0.12935  0.47136  -0.10727
   140.00  -0.14451  0.42032  -0.10434
   150.00  -0.15572  0.37200  -0.10608
   160.00  -0.17329  0.33240  -0.12313
   170.00  -0.08650  0.30649  -0.10995
   180.00  0.00008  0.29746  -0.00008
EOT
