AeroDyn airfoil file.  Compatible with AeroDyn v13.0.
Interpolated thickness: 0.379

  1        Number of airfoil tables in this file
  9990     Reynolds number in millions.  For efficiency, make very large if only one table.
  0        Control setting
  10.7935  Stall angle (deg)
  -3.51679 Zero lift angle of attack (deg)
  5.36357  Cn slope for zero lift (dimensionless)
  1.33962  Cn at stall value for positive angle of attack
  -0.8     Cn at stall value for negative angle of attack
  -2.12    Angle of attack for minimum CD (deg)
  0.0725928 Minimum CD value
  -180.00  0.00002  0.15463  -0.00002
  -170.00  0.32196  0.18821  0.32682
  -160.00  0.64471  0.28455  -0.11703
  -150.00  0.57935  0.43179  -0.05150
  -140.00  0.53767  0.61147  -0.00582
  -130.00  0.48129  0.80129  0.03839
  -120.00  0.39468  0.97713  0.08226
  -110.00  0.27947  1.11669  0.12296
  -100.00  0.14301  1.20191  0.15629
   -90.00  0.00002  1.22103  0.17819
   -80.00  -0.14298  1.20191  0.19437
   -70.00  -0.27943  1.11669  0.19731
   -60.00  -0.39464  0.97713  0.18971
   -50.00  -0.48126  0.80129  0.17648
   -40.00  -0.53764  0.61147  0.16569
   -30.00  -0.57931  0.43179  0.17215
   -20.00  -0.64304  0.28439  0.23490
   -10.00  -0.26309  0.15063  0.10384
    -4.17  -0.05881  0.07276  -0.11000
    -3.17  0.03434  0.07267  -0.11163
    -2.12  0.13076  0.07259  -0.11294
    -1.08  0.22799  0.07259  -0.11441
    -0.05  0.32441  0.07267  -0.11523
    -0.04  0.32463  0.07267  -0.11523
     1.17  0.43853  0.07285  -0.11628
     2.34  0.54582  0.07300  -0.11718
     3.51  0.65344  0.07327  -0.11779
     4.67  0.75768  0.07351  -0.11764
     5.84  0.85860  0.07381  -0.11690
     7.01  0.95428  0.07432  -0.11516
     8.18  1.03284  0.07488  -0.11033
    10.79  1.06854  0.08523  -0.08575
    13.41  0.93523  0.15755  -0.07920
    16.02  0.90309  0.20233  -0.08615
    18.63  0.92370  0.24692  -0.09696
    21.25  0.91858  0.30290  -0.11456
    23.86  0.89114  0.34148  -0.13692
    26.48  0.86371  0.38006  -0.15928
    29.09  0.83628  0.41864  -0.18164
    31.70  0.81680  0.46272  -0.19809
    34.32  0.80144  0.50964  -0.21149
    36.93  0.78608  0.55656  -0.22489
    39.54  0.77072  0.60348  -0.23829
    42.16  0.75057  0.65259  -0.24978
    44.77  0.72945  0.70216  -0.26087
    47.39  0.70833  0.75172  -0.27197
    50.00  0.68720  0.80129  -0.28306
    60.00  0.56382  0.97713  -0.32090
    70.00  0.39877  1.11669  -0.35382
    80.00  0.20429  1.20191  -0.38087
    90.00  0.00002  1.22103  -0.40032
   100.00  -0.14298  1.20191  -0.41642
   110.00  -0.27943  1.11669  -0.41944
   120.00  -0.39464  0.97713  -0.41176
   130.00  -0.48126  0.80129  -0.39860
   140.00  -0.53764  0.61147  -0.38773
   150.00  -0.57931  0.43179  -0.39419
   160.00  -0.64468  0.28455  -0.45760
   170.00  -0.32192  0.18821  -0.40857
   180.00  0.00002  0.15463  -0.00002
EOT
