AeroDyn airfoil file.  Compatible with AeroDyn v13.0.
Interpolated thickness: 0.486

  1        Number of airfoil tables in this file
  9990     Reynolds number in millions.  For efficiency, make very large if only one table.
  0        Control setting
  10.7645  Stall angle (deg)
  -3.44697 Zero lift angle of attack (deg)
  4.52381  Cn slope for zero lift (dimensionless)
  1.12207  Cn at stall value for positive angle of attack
  -0.8     Cn at stall value for negative angle of attack
  -2.12    Angle of attack for minimum CD (deg)
  0.120391 Minimum CD value
  -180.00  0.00003  0.18829  -0.00003
  -170.00  0.26650  0.21609  0.27049
  -160.00  0.53365  0.29583  -0.09688
  -150.00  0.47954  0.41770  -0.04264
  -140.00  0.44505  0.56642  -0.00483
  -130.00  0.39838  0.72353  0.03175
  -120.00  0.32669  0.86907  0.06807
  -110.00  0.23133  0.98459  0.10175
  -100.00  0.11839  1.05513  0.12935
   -90.00  0.00003  1.07095  0.14747
   -80.00  -0.11832  1.05513  0.16086
   -70.00  -0.23127  0.98459  0.16330
   -60.00  -0.32663  0.86907  0.15701
   -50.00  -0.39832  0.72353  0.14605
   -40.00  -0.44498  0.56642  0.13712
   -30.00  -0.47948  0.41770  0.14247
   -20.00  -0.53223  0.29569  0.19441
   -10.00  -0.21774  0.18498  0.08593
    -4.17  -0.04866  0.12053  -0.09106
    -3.17  0.02844  0.12046  -0.09242
    -2.12  0.10824  0.12039  -0.09350
    -1.08  0.18872  0.12039  -0.09472
    -0.05  0.26853  0.12046  -0.09539
    -0.03  0.26872  0.12046  -0.09539
     1.16  0.36299  0.12061  -0.09626
     2.33  0.45179  0.12073  -0.09701
     3.49  0.54087  0.12096  -0.09751
     4.66  0.62715  0.12115  -0.09739
     5.82  0.71067  0.12140  -0.09678
     6.98  0.78987  0.12182  -0.09533
     8.15  0.85490  0.12228  -0.09134
    10.76  0.88445  0.13085  -0.07099
    13.38  0.77410  0.19071  -0.06557
    16.00  0.74750  0.22777  -0.07132
    18.61  0.76456  0.26468  -0.08027
    21.23  0.76032  0.31102  -0.09484
    23.84  0.73762  0.34295  -0.11334
    26.46  0.71491  0.37488  -0.13185
    29.07  0.69220  0.40682  -0.15036
    31.69  0.67608  0.44330  -0.16398
    34.31  0.66337  0.48213  -0.17507
    36.92  0.65065  0.52097  -0.18616
    39.54  0.63794  0.55980  -0.19725
    42.15  0.62127  0.60045  -0.20676
    44.77  0.60378  0.64148  -0.21594
    47.38  0.58630  0.68250  -0.22512
    50.00  0.56881  0.72353  -0.23431
    60.00  0.46669  0.86907  -0.26562
    70.00  0.33007  0.98459  -0.29288
    80.00  0.16911  1.05513  -0.31526
    90.00  0.00003  1.07095  -0.33136
   100.00  -0.11832  1.05513  -0.34468
   110.00  -0.23127  0.98459  -0.34719
   120.00  -0.32663  0.86907  -0.34083
   130.00  -0.39832  0.72353  -0.32994
   140.00  -0.44498  0.56642  -0.32094
   150.00  -0.47948  0.41770  -0.32629
   160.00  -0.53358  0.29583  -0.37877
   170.00  -0.26644  0.21609  -0.33819
   180.00  0.00003  0.18829  -0.00003
EOT
