AeroDyn airfoil file.  Compatible with AeroDyn v13.0.
Interpolated thickness: 0.278

  1        Number of airfoil tables in this file
  9990     Reynolds number in millions.  For efficiency, make very large if only one table.
  0        Control setting
  10.8209  Stall angle (deg)
  -3.57158 Zero lift angle of attack (deg)
  6.14735  Cn slope for zero lift (dimensionless)
  1.54419  Cn at stall value for positive angle of attack
  -0.8     Cn at stall value for negative angle of attack
  -2.12    Angle of attack for minimum CD (deg)
  0.027475 Minimum CD value
  -180.00  0.00001  0.12286  -0.00001
  -170.00  0.37431  0.16190  0.38000
  -160.00  0.74956  0.27390  -0.13605
  -150.00  0.67356  0.44510  -0.05985
  -140.00  0.62511  0.65400  -0.00675
  -130.00  0.55956  0.87468  0.04464
  -120.00  0.45885  1.07912  0.09566
  -110.00  0.32491  1.24139  0.14297
  -100.00  0.16625  1.34047  0.18173
   -90.00  0.00001  1.36270  0.20719
   -80.00  -0.16624  1.34047  0.22600
   -70.00  -0.32490  1.24139  0.22942
   -60.00  -0.45885  1.07912  0.22058
   -50.00  -0.55954  0.87468  0.20519
   -40.00  -0.62509  0.65400  0.19265
   -30.00  -0.67354  0.44510  0.20016
   -20.00  -0.74765  0.27371  0.27312
   -10.00  -0.30590  0.11820  0.12074
    -4.17  -0.06839  0.02767  -0.12787
    -3.17  0.03990  0.02757  -0.12978
    -2.12  0.15201  0.02748  -0.13130
    -1.08  0.26505  0.02748  -0.13301
    -0.05  0.37715  0.02757  -0.13395
    -0.05  0.37742  0.02757  -0.13396
     1.17  0.50984  0.02778  -0.13518
     2.35  0.63457  0.02795  -0.13622
     3.52  0.75970  0.02827  -0.13693
     4.69  0.88089  0.02854  -0.13675
     5.86  0.99822  0.02889  -0.13590
     7.04  1.10946  0.02949  -0.13387
     8.21  1.20080  0.03014  -0.12826
    10.82  1.24232  0.04217  -0.09968
    13.43  1.08732  0.12625  -0.09206
    16.04  1.04995  0.17831  -0.10015
    18.66  1.07392  0.23016  -0.11271
    21.27  1.06796  0.29524  -0.13317
    23.88  1.03606  0.34010  -0.15917
    26.49  1.00417  0.38495  -0.18517
    29.10  0.97228  0.42981  -0.21116
    31.72  0.94963  0.48105  -0.23029
    34.33  0.93177  0.53560  -0.24587
    36.94  0.91391  0.59015  -0.26145
    39.55  0.89605  0.64470  -0.27703
    42.16  0.87263  0.70181  -0.29039
    44.78  0.84807  0.75943  -0.30329
    47.39  0.82351  0.81706  -0.31619
    50.00  0.79895  0.87468  -0.32908
    60.00  0.65551  1.07912  -0.37307
    70.00  0.46360  1.24139  -0.41135
    80.00  0.23750  1.34047  -0.44280
    90.00  0.00001  1.36270  -0.46541
   100.00  -0.16624  1.34047  -0.48413
   110.00  -0.32490  1.24139  -0.48764
   120.00  -0.45885  1.07912  -0.47871
   130.00  -0.55954  0.87468  -0.46341
   140.00  -0.62509  0.65400  -0.45078
   150.00  -0.67354  0.44510  -0.45828
   160.00  -0.74955  0.27390  -0.53201
   170.00  -0.37430  0.16190  -0.47500
   180.00  0.00001  0.12286  -0.00001
EOT
