AeroDyn airfoil file.  Compatible with AeroDyn v13.0.
Interpolated thickness: 0.993

  1        Number of airfoil tables in this file
  9990     Reynolds number in millions.  For efficiency, make very large if only one table.
  0        Control setting
  10.6269  Stall angle (deg)
  -0.540942 Zero lift angle of attack (deg)
  0.406982 Cn slope for zero lift (dimensionless)
  0.0793271 Cn at stall value for positive angle of attack
  -0.8     Cn at stall value for negative angle of attack
  -2.12    Angle of attack for minimum CD (deg)
  0.346873 Minimum CD value
  -180.00  0.00010  0.34780  -0.00010
  -170.00  0.00373  0.34818  0.00359
  -160.00  0.00737  0.34926  -0.00142
  -150.00  0.00663  0.35092  -0.00068
  -140.00  0.00616  0.35295  -0.00016
  -130.00  0.00552  0.35509  0.00033
  -120.00  0.00455  0.35707  0.00083
  -110.00  0.00325  0.35864  0.00129
  -100.00  0.00171  0.35960  0.00166
   -90.00  0.00010  0.35982  0.00191
   -80.00  -0.00151  0.35960  0.00209
   -70.00  -0.00305  0.35864  0.00213
   -60.00  -0.00435  0.35707  0.00204
   -50.00  -0.00533  0.35509  0.00189
   -40.00  -0.00596  0.35295  0.00177
   -30.00  -0.00643  0.35092  0.00184
   -20.00  -0.00715  0.34926  0.00255
   -10.00  -0.00287  0.34775  0.00107
    -4.17  -0.00056  0.34687  -0.00134
    -3.17  0.00049  0.34687  -0.00136
    -2.12  0.00157  0.34687  -0.00137
    -1.08  0.00267  0.34687  -0.00139
    -0.05  0.00376  0.34687  -0.00140
    -0.00  0.00376  0.34687  -0.00140
     1.14  0.00504  0.34688  -0.00141
     2.29  0.00625  0.34688  -0.00142
     3.43  0.00746  0.34688  -0.00143
     4.57  0.00864  0.34688  -0.00142
     5.72  0.00978  0.34689  -0.00142
     6.86  0.01086  0.34689  -0.00140
     8.00  0.01174  0.34690  -0.00134
    10.63  0.01214  0.34702  -0.00107
    13.25  0.01064  0.34783  -0.00099
    15.88  0.01028  0.34834  -0.00107
    18.50  0.01051  0.34884  -0.00119
    21.13  0.01045  0.34947  -0.00139
    23.75  0.01014  0.34990  -0.00164
    26.38  0.00983  0.35034  -0.00189
    29.00  0.00953  0.35077  -0.00215
    31.63  0.00931  0.35127  -0.00233
    34.25  0.00913  0.35180  -0.00248
    36.88  0.00896  0.35233  -0.00263
    39.50  0.00879  0.35286  -0.00278
    42.13  0.00856  0.35341  -0.00291
    44.75  0.00832  0.35397  -0.00304
    47.38  0.00808  0.35453  -0.00316
    50.00  0.00785  0.35509  -0.00329
    60.00  0.00645  0.35707  -0.00372
    70.00  0.00459  0.35864  -0.00409
    80.00  0.00240  0.35960  -0.00439
    90.00  0.00010  0.35982  -0.00461
   100.00  -0.00151  0.35960  -0.00479
   110.00  -0.00305  0.35864  -0.00483
   120.00  -0.00435  0.35707  -0.00474
   130.00  -0.00533  0.35509  -0.00459
   140.00  -0.00596  0.35295  -0.00447
   150.00  -0.00643  0.35092  -0.00454
   160.00  -0.00717  0.34926  -0.00526
   170.00  -0.00353  0.34818  -0.00470
   180.00  0.00010  0.34780  -0.00010
EOT
