AeroDyn airfoil file.  Compatible with AeroDyn v13.0.
Interpolated thickness: 0.511

  1        Number of airfoil tables in this file
  9990     Reynolds number in millions.  For efficiency, make very large if only one table.
  0        Control setting
  10.7577  Stall angle (deg)
  -3.42814 Zero lift angle of attack (deg)
  4.32619  Cn slope for zero lift (dimensionless)
  1.07112  Cn at stall value for positive angle of attack
  -0.8     Cn at stall value for negative angle of attack
  -2.12    Angle of attack for minimum CD (deg)
  0.131559 Minimum CD value
  -180.00  0.00004  0.19616  -0.00004
  -170.00  0.25354  0.22260  0.25733
  -160.00  0.50769  0.29846  -0.09217
  -150.00  0.45622  0.41441  -0.04057
  -140.00  0.42341  0.55589  -0.00460
  -130.00  0.37901  0.70536  0.03021
  -120.00  0.31081  0.84383  0.06476
  -110.00  0.22009  0.95372  0.09680
  -100.00  0.11263  1.02083  0.12305
   -90.00  0.00004  1.03589  0.14029
   -80.00  -0.11256  1.02083  0.15303
   -70.00  -0.22001  0.95372  0.15535
   -60.00  -0.31074  0.84383  0.14937
   -50.00  -0.37894  0.70536  0.13894
   -40.00  -0.42334  0.55589  0.13045
   -30.00  -0.45615  0.41441  0.13553
   -20.00  -0.50634  0.29833  0.18495
   -10.00  -0.20715  0.19301  0.08174
    -4.17  -0.04629  0.13169  -0.08664
    -3.17  0.02706  0.13162  -0.08793
    -2.12  0.10298  0.13156  -0.08896
    -1.08  0.17955  0.13156  -0.09011
    -0.05  0.25547  0.13162  -0.09076
    -0.03  0.25565  0.13162  -0.09076
     1.16  0.34534  0.13176  -0.09159
     2.33  0.42982  0.13188  -0.09229
     3.49  0.51457  0.13210  -0.09278
     4.65  0.59665  0.13228  -0.09265
     5.82  0.67611  0.13252  -0.09208
     6.98  0.75146  0.13292  -0.09070
     8.14  0.81332  0.13336  -0.08690
    10.76  0.84144  0.14151  -0.06754
    13.37  0.73646  0.19846  -0.06239
    15.99  0.71115  0.23372  -0.06786
    18.61  0.72738  0.26883  -0.07637
    21.22  0.72335  0.31291  -0.09023
    23.84  0.70174  0.34329  -0.10784
    26.45  0.68014  0.37367  -0.12544
    29.07  0.65854  0.40405  -0.14305
    31.69  0.64320  0.43876  -0.15601
    34.30  0.63111  0.47571  -0.16656
    36.92  0.61901  0.51265  -0.17711
    39.54  0.60691  0.54960  -0.18766
    42.15  0.59105  0.58827  -0.19671
    44.77  0.57442  0.62730  -0.20544
    47.38  0.55779  0.66633  -0.21418
    50.00  0.54115  0.70536  -0.22292
    60.00  0.44400  0.84383  -0.25271
    70.00  0.31403  0.95372  -0.27864
    80.00  0.16089  1.02083  -0.29993
    90.00  0.00004  1.03589  -0.31525
   100.00  -0.11256  1.02083  -0.32792
   110.00  -0.22001  0.95372  -0.33030
   120.00  -0.31074  0.84383  -0.32426
   130.00  -0.37894  0.70536  -0.31390
   140.00  -0.42334  0.55589  -0.30534
   150.00  -0.45615  0.41441  -0.31042
   160.00  -0.50762  0.29846  -0.36035
   170.00  -0.25347  0.22260  -0.32175
   180.00  0.00004  0.19616  -0.00004
EOT
