AeroDyn airfoil file.  Compatible with AeroDyn v13.0.
Interpolated thickness: 0.607

  1        Number of airfoil tables in this file
  9990     Reynolds number in millions.  For efficiency, make very large if only one table.
  0        Control setting
  10.7317  Stall angle (deg)
  -3.34235 Zero lift angle of attack (deg)
  3.5623   Cn slope for zero lift (dimensionless)
  0.875036 Cn at stall value for positive angle of attack
  -0.8     Cn at stall value for negative angle of attack
  -2.12    Angle of attack for minimum CD (deg)
  0.174443 Minimum CD value
  -180.00  0.00005  0.22636  -0.00005
  -170.00  0.20379  0.24761  0.20679
  -160.00  0.40804  0.30858  -0.07410
  -150.00  0.36668  0.40176  -0.03263
  -140.00  0.34030  0.51547  -0.00372
  -130.00  0.30462  0.63560  0.02426
  -120.00  0.24981  0.74688  0.05202
  -110.00  0.17690  0.83520  0.07778
  -100.00  0.09054  0.88913  0.09887
   -90.00  0.00005  0.90123  0.11273
   -80.00  -0.09045  0.88913  0.12297
   -70.00  -0.17680  0.83520  0.12483
   -60.00  -0.24971  0.74688  0.12002
   -50.00  -0.30453  0.63560  0.11165
   -40.00  -0.34021  0.51547  0.10482
   -30.00  -0.36658  0.40176  0.10891
   -20.00  -0.40691  0.30848  0.14862
   -10.00  -0.16646  0.22383  0.06568
    -4.17  -0.03718  0.17455  -0.06965
    -3.17  0.02177  0.17449  -0.07068
    -2.12  0.08279  0.17444  -0.07151
    -1.08  0.14432  0.17444  -0.07244
    -0.05  0.20534  0.17449  -0.07296
    -0.02  0.20548  0.17449  -0.07296
     1.16  0.27756  0.17461  -0.07363
     2.32  0.34546  0.17470  -0.07419
     3.48  0.41357  0.17487  -0.07458
     4.64  0.47953  0.17502  -0.07448
     5.80  0.54340  0.17521  -0.07402
     6.95  0.60395  0.17554  -0.07291
     8.11  0.65367  0.17589  -0.06986
    10.73  0.67627  0.18244  -0.05430
    13.35  0.59189  0.22821  -0.05016
    15.97  0.57156  0.25655  -0.05456
    18.59  0.58460  0.28477  -0.06140
    21.20  0.58136  0.32019  -0.07254
    23.82  0.56400  0.34461  -0.08669
    26.44  0.54664  0.36903  -0.10084
    29.06  0.52928  0.39344  -0.11499
    31.67  0.51695  0.42133  -0.12540
    34.29  0.50723  0.45103  -0.13388
    36.91  0.49751  0.48072  -0.14236
    39.53  0.48778  0.51041  -0.15084
    42.15  0.47504  0.54150  -0.15811
    44.76  0.46167  0.57286  -0.16513
    47.38  0.44830  0.60423  -0.17215
    50.00  0.43493  0.63560  -0.17917
    60.00  0.35685  0.74688  -0.20312
    70.00  0.25240  0.83520  -0.22395
    80.00  0.12932  0.88913  -0.24107
    90.00  0.00005  0.90123  -0.25338
   100.00  -0.09045  0.88913  -0.26357
   110.00  -0.17680  0.83520  -0.26548
   120.00  -0.24971  0.74688  -0.26062
   130.00  -0.30453  0.63560  -0.25229
   140.00  -0.34021  0.51547  -0.24541
   150.00  -0.36658  0.40176  -0.24950
   160.00  -0.40795  0.30858  -0.28963
   170.00  -0.20369  0.24761  -0.25860
   180.00  0.00005  0.22636  -0.00005
EOT
