AeroDyn airfoil file.  Compatible with AeroDyn v13.0.
Interpolated thickness: 0.328

  1        Number of airfoil tables in this file
  9990     Reynolds number in millions.  For efficiency, make very large if only one table.
  0        Control setting
  10.8074  Stall angle (deg)
  -3.54551 Zero lift angle of attack (deg)
  5.76041  Cn slope for zero lift (dimensionless)
  1.44301  Cn at stall value for positive angle of attack
  -0.8     Cn at stall value for negative angle of attack
  -2.12    Angle of attack for minimum CD (deg)
  0.0498105 Minimum CD value
  -180.00  0.00001  0.13859  -0.00001
  -170.00  0.34839  0.17493  0.35367
  -160.00  0.69765  0.27917  -0.12663
  -150.00  0.62692  0.43851  -0.05572
  -140.00  0.58182  0.63295  -0.00629
  -130.00  0.52081  0.83835  0.04155
  -120.00  0.42709  1.02863  0.08903
  -110.00  0.30241  1.17965  0.13306
  -100.00  0.15475  1.27188  0.16914
   -90.00  0.00001  1.29257  0.19283
   -80.00  -0.15473  1.27188  0.21034
   -70.00  -0.30239  1.17965  0.21353
   -60.00  -0.42706  1.02863  0.20530
   -50.00  -0.52079  0.83835  0.19098
   -40.00  -0.58180  0.63295  0.17931
   -30.00  -0.62689  0.43851  0.18629
   -20.00  -0.69586  0.27900  0.25420
   -10.00  -0.28470  0.13425  0.11237
    -4.17  -0.06365  0.04999  -0.11903
    -3.17  0.03715  0.04990  -0.12079
    -2.12  0.14149  0.04981  -0.12221
    -1.08  0.24671  0.04981  -0.12380
    -0.05  0.35104  0.04990  -0.12469
    -0.04  0.35129  0.04990  -0.12469
     1.17  0.47454  0.05009  -0.12582
     2.34  0.59063  0.05025  -0.12679
     3.51  0.70710  0.05055  -0.12746
     4.68  0.81990  0.05080  -0.12729
     5.85  0.92910  0.05113  -0.12650
     7.02  1.03264  0.05168  -0.12460
     8.19  1.11765  0.05229  -0.11938
    10.81  1.15629  0.06349  -0.09278
    13.42  1.01202  0.14175  -0.08569
    16.03  0.97725  0.19020  -0.09322
    18.65  0.99955  0.23846  -0.10491
    21.26  0.99401  0.29903  -0.12396
    23.87  0.96432  0.34078  -0.14816
    26.48  0.93464  0.38253  -0.17235
    29.10  0.90495  0.42428  -0.19655
    31.71  0.88387  0.47198  -0.21435
    34.32  0.86725  0.52275  -0.22885
    36.94  0.85063  0.57352  -0.24335
    39.55  0.83400  0.62429  -0.25785
    42.16  0.81221  0.67744  -0.27028
    44.77  0.78935  0.73108  -0.28229
    47.39  0.76649  0.78471  -0.29430
    50.00  0.74363  0.83835  -0.30630
    60.00  0.61012  1.02863  -0.34724
    70.00  0.43151  1.17965  -0.38287
    80.00  0.22106  1.27188  -0.41214
    90.00  0.00001  1.29257  -0.43319
   100.00  -0.15473  1.27188  -0.45061
   110.00  -0.30239  1.17965  -0.45388
   120.00  -0.42706  1.02863  -0.44557
   130.00  -0.52079  0.83835  -0.43133
   140.00  -0.58180  0.63295  -0.41957
   150.00  -0.62689  0.43851  -0.42655
   160.00  -0.69763  0.27917  -0.49517
   170.00  -0.34837  0.17493  -0.44212
   180.00  0.00001  0.13859  -0.00001
EOT
