AeroDyn airfoil file.  Compatible with AeroDyn v13.0.
Interpolated thickness: 0.575

  1        Number of airfoil tables in this file
  9990     Reynolds number in millions.  For efficiency, make very large if only one table.
  0        Control setting
  10.7403  Stall angle (deg)
  -3.37378 Zero lift angle of attack (deg)
  3.81782  Cn slope for zero lift (dimensionless)
  0.940474 Cn at stall value for positive angle of attack
  -0.8     Cn at stall value for negative angle of attack
  -2.12    Angle of attack for minimum CD (deg)
  0.160148 Minimum CD value
  -180.00  0.00004  0.21629  -0.00004
  -170.00  0.22037  0.23928  0.22364
  -160.00  0.44126  0.30521  -0.08012
  -150.00  0.39652  0.40598  -0.03527
  -140.00  0.36800  0.52895  -0.00401
  -130.00  0.32942  0.65885  0.02624
  -120.00  0.27014  0.77919  0.05627
  -110.00  0.19129  0.87471  0.08412
  -100.00  0.09791  0.93303  0.10693
   -90.00  0.00004  0.94612  0.12192
   -80.00  -0.09782  0.93303  0.13299
   -70.00  -0.19121  0.87471  0.13501
   -60.00  -0.27005  0.77919  0.12980
   -50.00  -0.32933  0.65885  0.12075
   -40.00  -0.36792  0.52895  0.11336
   -30.00  -0.39644  0.40598  0.11778
   -20.00  -0.44005  0.30510  0.16073
   -10.00  -0.18002  0.21355  0.07103
    -4.17  -0.04022  0.16026  -0.07531
    -3.17  0.02353  0.16020  -0.07643
    -2.12  0.08952  0.16015  -0.07733
    -1.08  0.15606  0.16015  -0.07833
    -0.05  0.22205  0.16020  -0.07889
    -0.03  0.22220  0.16020  -0.07889
     1.16  0.30016  0.16033  -0.07961
     2.32  0.37358  0.16042  -0.08023
     3.48  0.44723  0.16061  -0.08065
     4.64  0.51857  0.16077  -0.08054
     5.80  0.58764  0.16098  -0.08004
     6.96  0.65312  0.16133  -0.07884
     8.12  0.70689  0.16171  -0.07554
    10.74  0.73132  0.16880  -0.05872
    13.36  0.64008  0.21829  -0.05423
    15.97  0.61809  0.24894  -0.05899
    18.59  0.63219  0.27946  -0.06639
    21.21  0.62869  0.31777  -0.07843
    23.83  0.60991  0.34417  -0.09374
    26.44  0.59114  0.37057  -0.10904
    29.06  0.57236  0.39698  -0.12434
    31.68  0.55903  0.42714  -0.13560
    34.30  0.54852  0.45925  -0.14477
    36.91  0.53801  0.49136  -0.15394
    39.53  0.52749  0.52348  -0.16311
    42.15  0.51371  0.55709  -0.17097
    44.77  0.49925  0.59101  -0.17857
    47.38  0.48480  0.62493  -0.18616
    50.00  0.47034  0.65885  -0.19375
    60.00  0.38590  0.77919  -0.21965
    70.00  0.27294  0.87471  -0.24218
    80.00  0.13985  0.93303  -0.26069
    90.00  0.00004  0.94612  -0.27400
   100.00  -0.09782  0.93303  -0.28502
   110.00  -0.19121  0.87471  -0.28709
   120.00  -0.27005  0.77919  -0.28183
   130.00  -0.32933  0.65885  -0.27283
   140.00  -0.36792  0.52895  -0.26539
   150.00  -0.39644  0.40598  -0.26981
   160.00  -0.44117  0.30521  -0.31320
   170.00  -0.22028  0.23928  -0.27965
   180.00  0.00004  0.21629  -0.00004
EOT
