AeroDyn airfoil file.  Compatible with AeroDyn v13.0.
Interpolated thickness: 0.508

  1        Number of airfoil tables in this file
  9990     Reynolds number in millions.  For efficiency, make very large if only one table.
  0        Control setting
  10.7585  Stall angle (deg)
  -3.43047 Zero lift angle of attack (deg)
  4.34993  Cn slope for zero lift (dimensionless)
  1.07724  Cn at stall value for positive angle of attack
  -0.8     Cn at stall value for negative angle of attack
  -2.12    Angle of attack for minimum CD (deg)
  0.130218 Minimum CD value
  -180.00  0.00004  0.19521  -0.00004
  -170.00  0.25510  0.22182  0.25891
  -160.00  0.51081  0.29815  -0.09274
  -150.00  0.45902  0.41480  -0.04082
  -140.00  0.42600  0.55716  -0.00463
  -130.00  0.38134  0.70754  0.03039
  -120.00  0.31271  0.84686  0.06515
  -110.00  0.22144  0.95743  0.09739
  -100.00  0.11332  1.02495  0.12381
   -90.00  0.00004  1.04009  0.14116
   -80.00  -0.11325  1.02495  0.15397
   -70.00  -0.22136  0.95743  0.15630
   -60.00  -0.31264  0.84686  0.15028
   -50.00  -0.38126  0.70754  0.13980
   -40.00  -0.42593  0.55716  0.13125
   -30.00  -0.45895  0.41480  0.13637
   -20.00  -0.50944  0.29802  0.18608
   -10.00  -0.20842  0.19204  0.08225
    -4.17  -0.04658  0.13035  -0.08717
    -3.17  0.02722  0.13028  -0.08847
    -2.12  0.10361  0.13022  -0.08950
    -1.08  0.18065  0.13022  -0.09067
    -0.05  0.25704  0.13028  -0.09131
    -0.03  0.25722  0.13028  -0.09132
     1.16  0.34746  0.13042  -0.09215
     2.33  0.43245  0.13054  -0.09286
     3.49  0.51772  0.13076  -0.09334
     4.65  0.60031  0.13094  -0.09322
     5.82  0.68026  0.13118  -0.09264
     6.98  0.75607  0.13159  -0.09125
     8.14  0.81831  0.13203  -0.08743
    10.76  0.84660  0.14023  -0.06796
    13.37  0.74097  0.19753  -0.06277
    15.99  0.71551  0.23300  -0.06827
    18.61  0.73184  0.26834  -0.07684
    21.22  0.72778  0.31269  -0.09078
    23.84  0.70605  0.34325  -0.10850
    26.46  0.68431  0.37382  -0.12621
    29.07  0.66258  0.40438  -0.14393
    31.69  0.64715  0.43930  -0.15696
    34.30  0.63498  0.47648  -0.16758
    36.92  0.62281  0.51365  -0.17820
    39.54  0.61064  0.55082  -0.18881
    42.15  0.59468  0.58973  -0.19791
    44.77  0.57794  0.62900  -0.20670
    47.38  0.56121  0.66827  -0.21549
    50.00  0.54447  0.70754  -0.22428
    60.00  0.44672  0.84686  -0.25426
    70.00  0.31595  0.95743  -0.28035
    80.00  0.16188  1.02495  -0.30177
    90.00  0.00004  1.04009  -0.31718
   100.00  -0.11325  1.02495  -0.32993
   110.00  -0.22136  0.95743  -0.33233
   120.00  -0.31264  0.84686  -0.32624
   130.00  -0.38126  0.70754  -0.31582
   140.00  -0.42593  0.55716  -0.30721
   150.00  -0.45895  0.41480  -0.31233
   160.00  -0.51074  0.29815  -0.36256
   170.00  -0.25503  0.22182  -0.32372
   180.00  0.00004  0.19521  -0.00004
EOT
