AeroDyn airfoil file.  Compatible with AeroDyn v13.0.
Interpolated thickness: 0.961

  1        Number of airfoil tables in this file
  9990     Reynolds number in millions.  For efficiency, make very large if only one table.
  0        Control setting
  10.6356  Stall angle (deg)
  -1.79314 Zero lift angle of attack (deg)
  0.668475 Cn slope for zero lift (dimensionless)
  0.145007 Cn at stall value for positive angle of attack
  -0.8     Cn at stall value for negative angle of attack
  -2.12    Angle of attack for minimum CD (deg)
  0.332578 Minimum CD value
  -180.00  0.00009  0.33773  -0.00009
  -170.00  0.02031  0.33984  0.02043
  -160.00  0.04058  0.34589  -0.00744
  -150.00  0.03648  0.35514  -0.00333
  -140.00  0.03386  0.36642  -0.00046
  -130.00  0.03032  0.37834  0.00232
  -120.00  0.02488  0.38938  0.00507
  -110.00  0.01764  0.39815  0.00763
  -100.00  0.00908  0.40350  0.00972
   -90.00  0.00009  0.40470  0.01110
   -80.00  -0.00889  0.40350  0.01211
   -70.00  -0.01746  0.39815  0.01230
   -60.00  -0.02469  0.38938  0.01182
   -50.00  -0.03013  0.37834  0.01099
   -40.00  -0.03367  0.36642  0.01031
   -30.00  -0.03629  0.35514  0.01072
   -20.00  -0.04029  0.34588  0.01466
   -10.00  -0.01643  0.33748  0.00643
    -4.17  -0.00360  0.33259  -0.00700
    -3.17  0.00225  0.33258  -0.00710
    -2.12  0.00831  0.33258  -0.00719
    -1.08  0.01441  0.33258  -0.00728
    -0.05  0.02047  0.33258  -0.00733
    -0.00  0.02048  0.33258  -0.00733
     1.14  0.02763  0.33259  -0.00740
     2.29  0.03437  0.33260  -0.00745
     3.43  0.04113  0.33262  -0.00749
     4.58  0.04768  0.33264  -0.00748
     5.72  0.05402  0.33265  -0.00744
     6.87  0.06002  0.33269  -0.00733
     8.01  0.06496  0.33272  -0.00702
    10.64  0.06720  0.33337  -0.00548
    13.26  0.05883  0.33791  -0.00507
    15.88  0.05681  0.34073  -0.00550
    18.51  0.05810  0.34353  -0.00618
    21.13  0.05778  0.34704  -0.00729
    23.76  0.05606  0.34947  -0.00869
    26.38  0.05434  0.35189  -0.01010
    29.01  0.05261  0.35431  -0.01150
    31.63  0.05139  0.35708  -0.01253
    34.25  0.05043  0.36003  -0.01338
    36.88  0.04946  0.36297  -0.01422
    39.50  0.04850  0.36592  -0.01506
    42.13  0.04723  0.36900  -0.01578
    44.75  0.04590  0.37212  -0.01648
    47.38  0.04458  0.37523  -0.01717
    50.00  0.04325  0.37834  -0.01787
    60.00  0.03550  0.38938  -0.02025
    70.00  0.02514  0.39815  -0.02231
    80.00  0.01292  0.40350  -0.02401
    90.00  0.00009  0.40470  -0.02523
   100.00  -0.00889  0.40350  -0.02625
   110.00  -0.01746  0.39815  -0.02644
   120.00  -0.02469  0.38938  -0.02595
   130.00  -0.03013  0.37834  -0.02513
   140.00  -0.03367  0.36642  -0.02444
   150.00  -0.03629  0.35514  -0.02485
   160.00  -0.04039  0.34589  -0.02883
   170.00  -0.02012  0.33984  -0.02575
   180.00  0.00009  0.33773  -0.00009
EOT
