AeroDyn airfoil file.  Compatible with AeroDyn v13.0.
Interpolated thickness: 0.814

  1        Number of airfoil tables in this file
  9990     Reynolds number in millions.  For efficiency, make very large if only one table.
  0        Control setting
  10.6755  Stall angle (deg)
  -3.05876 Zero lift angle of attack (deg)
  1.86148  Cn slope for zero lift (dimensionless)
  0.44621  Cn at stall value for positive angle of attack
  -0.8     Cn at stall value for negative angle of attack
  -2.12    Angle of attack for minimum CD (deg)
  0.266912 Minimum CD value
  -180.00  0.00008  0.29148  -0.00008
  -170.00  0.09650  0.30154  0.09782
  -160.00  0.19317  0.33040  -0.03512
  -150.00  0.17359  0.37450  -0.01549
  -140.00  0.16111  0.42832  -0.00181
  -130.00  0.14423  0.48517  0.01143
  -120.00  0.11828  0.53784  0.02457
  -110.00  0.08378  0.57964  0.03676
  -100.00  0.04290  0.60516  0.04674
   -90.00  0.00008  0.61089  0.05330
   -80.00  -0.04275  0.60516  0.05815
   -70.00  -0.08362  0.57964  0.05903
   -60.00  -0.11813  0.53784  0.05675
   -50.00  -0.14407  0.48517  0.05279
   -40.00  -0.16096  0.42832  0.04956
   -30.00  -0.17344  0.37450  0.05149
   -20.00  -0.19253  0.33035  0.07029
   -10.00  -0.07873  0.29028  0.03103
    -4.17  -0.01755  0.26696  -0.03302
    -3.17  0.01035  0.26694  -0.03351
    -2.12  0.03923  0.26691  -0.03390
    -1.08  0.06836  0.26691  -0.03434
    -0.05  0.09724  0.26694  -0.03458
    -0.01  0.09730  0.26694  -0.03458
     1.15  0.13142  0.26699  -0.03490
     2.30  0.16355  0.26703  -0.03517
     3.45  0.19579  0.26712  -0.03535
     4.60  0.22701  0.26719  -0.03530
     5.75  0.25723  0.26728  -0.03509
     6.90  0.28589  0.26743  -0.03456
     8.05  0.30942  0.26760  -0.03311
    10.68  0.32012  0.27070  -0.02575
    13.30  0.28019  0.29236  -0.02379
    15.92  0.27056  0.30577  -0.02587
    18.54  0.27673  0.31913  -0.02911
    21.16  0.27520  0.33589  -0.03438
    23.78  0.26698  0.34745  -0.04108
    26.41  0.25877  0.35900  -0.04778
    29.03  0.25055  0.37056  -0.05447
    31.65  0.24472  0.38376  -0.05940
    34.27  0.24011  0.39781  -0.06342
    36.89  0.23551  0.41187  -0.06743
    39.51  0.23091  0.42592  -0.07144
    42.14  0.22488  0.44063  -0.07488
    44.76  0.21855  0.45548  -0.07821
    47.38  0.21223  0.47032  -0.08153
    50.00  0.20590  0.48517  -0.08485
    60.00  0.16894  0.53784  -0.09618
    70.00  0.11951  0.57964  -0.10605
    80.00  0.06126  0.60516  -0.11415
    90.00  0.00008  0.61089  -0.11997
   100.00  -0.04275  0.60516  -0.12479
   110.00  -0.08362  0.57964  -0.12570
   120.00  -0.11813  0.53784  -0.12340
   130.00  -0.14407  0.48517  -0.11946
   140.00  -0.16096  0.42832  -0.11620
   150.00  -0.17344  0.37450  -0.11814
   160.00  -0.19302  0.33040  -0.13713
   170.00  -0.09635  0.30154  -0.12244
   180.00  0.00008  0.29148  -0.00008
EOT
