AeroDyn airfoil file.  Compatible with AeroDyn v13.0.
Interpolated thickness: 0.332

  1        Number of airfoil tables in this file
  9990     Reynolds number in millions.  For efficiency, make very large if only one table.
  0        Control setting
  10.8063  Stall angle (deg)
  -3.54334 Zero lift angle of attack (deg)
  5.72937  Cn slope for zero lift (dimensionless)
  1.43491  Cn at stall value for positive angle of attack
  -0.8     Cn at stall value for negative angle of attack
  -2.12    Angle of attack for minimum CD (deg)
  0.0515974 Minimum CD value
  -180.00  0.00001  0.13984  -0.00001
  -170.00  0.34632  0.17597  0.35157
  -160.00  0.69350  0.27960  -0.12588
  -150.00  0.62319  0.43798  -0.05539
  -140.00  0.57836  0.63126  -0.00625
  -130.00  0.51771  0.83544  0.04130
  -120.00  0.42454  1.02459  0.08850
  -110.00  0.30061  1.17472  0.13227
  -100.00  0.15383  1.26639  0.16813
   -90.00  0.00001  1.28696  0.19169
   -80.00  -0.15380  1.26639  0.20909
   -70.00  -0.30059  1.17472  0.21225
   -60.00  -0.42452  1.02459  0.20408
   -50.00  -0.51769  0.83544  0.18984
   -40.00  -0.57834  0.63126  0.17824
   -30.00  -0.62316  0.43798  0.18518
   -20.00  -0.69172  0.27942  0.25269
   -10.00  -0.28301  0.13554  0.11170
    -4.17  -0.06327  0.05177  -0.11832
    -3.17  0.03693  0.05169  -0.12008
    -2.12  0.14064  0.05160  -0.12148
    -1.08  0.24524  0.05160  -0.12306
    -0.05  0.34895  0.05169  -0.12394
    -0.04  0.34920  0.05169  -0.12395
     1.17  0.47172  0.05188  -0.12507
     2.34  0.58712  0.05203  -0.12604
     3.51  0.70289  0.05233  -0.12670
     4.68  0.81502  0.05258  -0.12653
     5.85  0.92357  0.05291  -0.12575
     7.02  1.02649  0.05346  -0.12386
     8.19  1.11100  0.05406  -0.11867
    10.81  1.14941  0.06519  -0.09223
    13.42  1.00600  0.14299  -0.08519
    16.03  0.97143  0.19115  -0.09266
    18.65  0.99360  0.23912  -0.10429
    21.26  0.98809  0.29934  -0.12322
    23.87  0.95858  0.34084  -0.14727
    26.48  0.92907  0.38234  -0.17133
    29.10  0.89956  0.42384  -0.19538
    31.71  0.87861  0.47125  -0.21308
    34.32  0.86209  0.52172  -0.22749
    36.94  0.84556  0.57219  -0.24190
    39.55  0.82904  0.62266  -0.25632
    42.16  0.80737  0.67549  -0.26868
    44.77  0.78465  0.72881  -0.28061
    47.39  0.76193  0.78213  -0.29254
    50.00  0.73921  0.83544  -0.30448
    60.00  0.60649  1.02459  -0.34517
    70.00  0.42894  1.17472  -0.38060
    80.00  0.21975  1.26639  -0.40969
    90.00  0.00001  1.28696  -0.43061
   100.00  -0.15380  1.26639  -0.44792
   110.00  -0.30059  1.17472  -0.45118
   120.00  -0.42452  1.02459  -0.44291
   130.00  -0.51769  0.83544  -0.42876
   140.00  -0.57834  0.63126  -0.41707
   150.00  -0.62316  0.43798  -0.42402
   160.00  -0.69348  0.27960  -0.49222
   170.00  -0.34629  0.17597  -0.43949
   180.00  0.00001  0.13984  -0.00001
EOT
