AeroDyn airfoil file.  Compatible with AeroDyn v13.0.
Interpolated thickness: 0.318

  1        Number of airfoil tables in this file
  9990     Reynolds number in millions.  For efficiency, make very large if only one table.
  0        Control setting
  10.8101  Stall angle (deg)
  -3.55087 Zero lift angle of attack (deg)
  5.83797  Cn slope for zero lift (dimensionless)
  1.46326  Cn at stall value for positive angle of attack
  -0.8     Cn at stall value for negative angle of attack
  -2.12    Angle of attack for minimum CD (deg)
  0.0453434 Minimum CD value
  -180.00  0.00001  0.13544  -0.00001
  -170.00  0.35357  0.17232  0.35894
  -160.00  0.70803  0.27812  -0.12851
  -150.00  0.63624  0.43983  -0.05654
  -140.00  0.59048  0.63716  -0.00638
  -130.00  0.52856  0.84562  0.04217
  -120.00  0.43344  1.03873  0.09035
  -110.00  0.30691  1.19200  0.13504
  -100.00  0.15705  1.28560  0.17166
   -90.00  0.00001  1.30659  0.19571
   -80.00  -0.15703  1.28560  0.21347
   -70.00  -0.30689  1.19200  0.21670
   -60.00  -0.43342  1.03873  0.20836
   -50.00  -0.52854  0.84562  0.19382
   -40.00  -0.59046  0.63716  0.18198
   -30.00  -0.63622  0.43983  0.18907
   -20.00  -0.70622  0.27794  0.25798
   -10.00  -0.28894  0.13104  0.11405
    -4.17  -0.06460  0.04552  -0.12080
    -3.17  0.03770  0.04543  -0.12259
    -2.12  0.14359  0.04534  -0.12403
    -1.08  0.25038  0.04534  -0.12564
    -0.05  0.35627  0.04543  -0.12654
    -0.04  0.35651  0.04543  -0.12654
     1.17  0.48160  0.04563  -0.12769
     2.34  0.59942  0.04579  -0.12868
     3.51  0.71762  0.04609  -0.12935
     4.68  0.83210  0.04635  -0.12918
     5.86  0.94293  0.04668  -0.12838
     7.03  1.04800  0.04724  -0.12646
     8.20  1.13428  0.04786  -0.12116
    10.81  1.17350  0.05922  -0.09416
    13.42  1.02708  0.13865  -0.08697
    16.04  0.99179  0.18782  -0.09460
    18.65  1.01443  0.23680  -0.10647
    21.26  1.00880  0.29828  -0.12580
    23.87  0.97867  0.34065  -0.15036
    26.49  0.94854  0.38302  -0.17491
    29.10  0.91842  0.42539  -0.19947
    31.71  0.89703  0.47379  -0.21754
    34.32  0.88015  0.52532  -0.23226
    36.94  0.86328  0.57685  -0.24697
    39.55  0.84641  0.62838  -0.26169
    42.16  0.82429  0.68232  -0.27430
    44.77  0.80109  0.73675  -0.28649
    47.39  0.77790  0.79118  -0.29867
    50.00  0.75470  0.84562  -0.31086
    60.00  0.61919  1.03873  -0.35241
    70.00  0.43793  1.19200  -0.38857
    80.00  0.22435  1.28560  -0.41827
    90.00  0.00001  1.30659  -0.43963
   100.00  -0.15703  1.28560  -0.45731
   110.00  -0.30689  1.19200  -0.46063
   120.00  -0.43342  1.03873  -0.45219
   130.00  -0.52854  0.84562  -0.43775
   140.00  -0.59046  0.63716  -0.42581
   150.00  -0.63622  0.43983  -0.43290
   160.00  -0.70801  0.27812  -0.50254
   170.00  -0.35355  0.17232  -0.44869
   180.00  0.00001  0.13544  -0.00001
EOT
