AeroDyn airfoil file.  Compatible with AeroDyn v13.0.
Interpolated thickness: 0.744

  1        Number of airfoil tables in this file
  9990     Reynolds number in millions.  For efficiency, make very large if only one table.
  0        Control setting
  10.6945  Stall angle (deg)
  -3.15065 Zero lift angle of attack (deg)
  2.45817  Cn slope for zero lift (dimensionless)
  0.593999 Cn at stall value for positive angle of attack
  -0.8     Cn at stall value for negative angle of attack
  -2.12    Angle of attack for minimum CD (deg)
  0.235642 Minimum CD value
  -180.00  0.00007  0.26946  -0.00007
  -170.00  0.13278  0.28331  0.13467
  -160.00  0.26583  0.32302  -0.04830
  -150.00  0.23889  0.38372  -0.02129
  -140.00  0.22171  0.45779  -0.00246
  -130.00  0.19847  0.53604  0.01577
  -120.00  0.16276  0.60853  0.03385
  -110.00  0.11527  0.66606  0.05063
  -100.00  0.05901  0.70119  0.06437
   -90.00  0.00007  0.70907  0.07340
   -80.00  -0.05888  0.70119  0.08007
   -70.00  -0.11513  0.66606  0.08128
   -60.00  -0.16263  0.60853  0.07815
   -50.00  -0.19833  0.53604  0.07269
   -40.00  -0.22158  0.45779  0.06825
   -30.00  -0.23875  0.38372  0.07091
   -20.00  -0.26503  0.32295  0.09678
   -10.00  -0.10840  0.26781  0.04275
    -4.17  -0.02419  0.23571  -0.04541
    -3.17  0.01421  0.23568  -0.04608
    -2.12  0.05396  0.23564  -0.04662
    -1.08  0.09405  0.23564  -0.04722
    -0.05  0.13379  0.23568  -0.04756
    -0.02  0.13389  0.23568  -0.04756
     1.15  0.18084  0.23575  -0.04799
     2.31  0.22506  0.23581  -0.04836
     3.46  0.26943  0.23592  -0.04862
     4.61  0.31240  0.23602  -0.04855
     5.77  0.35401  0.23614  -0.04825
     6.92  0.39345  0.23635  -0.04753
     8.07  0.42583  0.23659  -0.04554
    10.69  0.44055  0.24085  -0.03541
    13.31  0.38559  0.27067  -0.03271
    15.94  0.37235  0.28912  -0.03557
    18.56  0.38084  0.30751  -0.04003
    21.18  0.37873  0.33058  -0.04728
    23.80  0.36742  0.34649  -0.05650
    26.42  0.35611  0.36239  -0.06572
    29.04  0.34480  0.37830  -0.07494
    31.66  0.33678  0.39647  -0.08172
    34.28  0.33044  0.41581  -0.08724
    36.90  0.32411  0.43515  -0.09277
    39.52  0.31778  0.45449  -0.09829
    42.14  0.30947  0.47474  -0.10303
    44.76  0.30077  0.49517  -0.10760
    47.38  0.29206  0.51561  -0.11217
    50.00  0.28335  0.53604  -0.11675
    60.00  0.23249  0.60853  -0.13234
    70.00  0.16445  0.66606  -0.14592
    80.00  0.08428  0.70119  -0.15707
    90.00  0.00007  0.70907  -0.16509
   100.00  -0.05888  0.70119  -0.17172
   110.00  -0.11513  0.66606  -0.17297
   120.00  -0.16263  0.60853  -0.16980
   130.00  -0.19833  0.53604  -0.16438
   140.00  -0.22158  0.45779  -0.15990
   150.00  -0.23875  0.38372  -0.16256
   160.00  -0.26570  0.32302  -0.18870
   170.00  -0.13265  0.28331  -0.16849
   180.00  0.00007  0.26946  -0.00007
EOT
