AeroDyn airfoil file.  Compatible with AeroDyn v13.0.
Interpolated thickness: 0.56

  1        Number of airfoil tables in this file
  9990     Reynolds number in millions.  For efficiency, make very large if only one table.
  0        Control setting
  10.7444  Stall angle (deg)
  -3.38744 Zero lift angle of attack (deg)
  3.93729  Cn slope for zero lift (dimensionless)
  0.971122 Cn at stall value for positive angle of attack
  -0.8     Cn at stall value for negative angle of attack
  -2.12    Angle of attack for minimum CD (deg)
  0.153447 Minimum CD value
  -180.00  0.00004  0.21157  -0.00004
  -170.00  0.22815  0.23537  0.23154
  -160.00  0.45683  0.30363  -0.08295
  -150.00  0.41052  0.40795  -0.03652
  -140.00  0.38099  0.53526  -0.00415
  -130.00  0.34104  0.66975  0.02717
  -120.00  0.27967  0.79434  0.05826
  -110.00  0.19804  0.89323  0.08709
  -100.00  0.10136  0.95361  0.11071
   -90.00  0.00004  0.96716  0.12623
   -80.00  -0.10127  0.95361  0.13769
   -70.00  -0.19796  0.89323  0.13977
   -60.00  -0.27959  0.79434  0.13439
   -50.00  -0.34096  0.66975  0.12501
   -40.00  -0.38091  0.53526  0.11737
   -30.00  -0.41043  0.40795  0.12194
   -20.00  -0.45559  0.30351  0.16641
   -10.00  -0.18638  0.20874  0.07354
    -4.17  -0.04164  0.15356  -0.07797
    -3.17  0.02436  0.15351  -0.07913
    -2.12  0.09267  0.15345  -0.08005
    -1.08  0.16157  0.15345  -0.08109
    -0.05  0.22988  0.15351  -0.08167
    -0.03  0.23004  0.15351  -0.08168
     1.16  0.31075  0.15363  -0.08242
     2.32  0.38676  0.15373  -0.08305
     3.48  0.46301  0.15393  -0.08349
     4.64  0.53687  0.15409  -0.08338
     5.81  0.60837  0.15431  -0.08286
     6.97  0.67617  0.15467  -0.08162
     8.13  0.73183  0.15507  -0.07820
    10.74  0.75713  0.16240  -0.06078
    13.36  0.66267  0.21365  -0.05614
    15.98  0.63990  0.24537  -0.06107
    18.60  0.65450  0.27697  -0.06873
    21.21  0.65087  0.31663  -0.08120
    23.83  0.63144  0.34397  -0.09704
    26.45  0.61200  0.37130  -0.11288
    29.06  0.59256  0.39864  -0.12873
    31.68  0.57876  0.42987  -0.14038
    34.30  0.56788  0.46311  -0.14988
    36.91  0.55699  0.49635  -0.15937
    39.53  0.54611  0.52960  -0.16887
    42.15  0.53184  0.56440  -0.17701
    44.77  0.51687  0.59952  -0.18487
    47.38  0.50190  0.63463  -0.19273
    50.00  0.48694  0.66975  -0.20059
    60.00  0.39952  0.79434  -0.22739
    70.00  0.28257  0.89323  -0.25073
    80.00  0.14478  0.95361  -0.26989
    90.00  0.00004  0.96716  -0.28367
   100.00  -0.10127  0.95361  -0.29507
   110.00  -0.19796  0.89323  -0.29722
   120.00  -0.27959  0.79434  -0.29177
   130.00  -0.34096  0.66975  -0.28245
   140.00  -0.38091  0.53526  -0.27475
   150.00  -0.41043  0.40795  -0.27933
   160.00  -0.45675  0.30363  -0.32425
   170.00  -0.22806  0.23537  -0.28952
   180.00  0.00004  0.21157  -0.00004
EOT
