AeroDyn airfoil file.  Compatible with AeroDyn v13.0.
Interpolated thickness: 0.538

  1        Number of airfoil tables in this file
  9990     Reynolds number in millions.  For efficiency, make very large if only one table.
  0        Control setting
  10.7504  Stall angle (deg)
  -3.4064  Zero lift angle of attack (deg)
  4.11216  Cn slope for zero lift (dimensionless)
  1.01604  Cn at stall value for positive angle of attack
  -0.8     Cn at stall value for negative angle of attack
  -2.12    Angle of attack for minimum CD (deg)
  0.14362  Minimum CD value
  -180.00  0.00004  0.20465  -0.00004
  -170.00  0.23955  0.22964  0.24312
  -160.00  0.47967  0.30131  -0.08709
  -150.00  0.43104  0.41085  -0.03834
  -140.00  0.40003  0.54453  -0.00436
  -130.00  0.35809  0.68574  0.02853
  -120.00  0.29365  0.81656  0.06118
  -110.00  0.20794  0.92039  0.09145
  -100.00  0.10642  0.98379  0.11625
   -90.00  0.00004  0.99802  0.13254
   -80.00  -0.10634  0.98379  0.14458
   -70.00  -0.20786  0.92039  0.14677
   -60.00  -0.29357  0.81656  0.14111
   -50.00  -0.35801  0.68574  0.13127
   -40.00  -0.39996  0.54453  0.12324
   -30.00  -0.43096  0.41085  0.12804
   -20.00  -0.47837  0.30119  0.17473
   -10.00  -0.19570  0.20167  0.07722
    -4.17  -0.04373  0.14374  -0.08186
    -3.17  0.02557  0.14368  -0.08308
    -2.12  0.09730  0.14362  -0.08405
    -1.08  0.16964  0.14362  -0.08514
    -0.05  0.24137  0.14368  -0.08575
    -0.03  0.24154  0.14368  -0.08575
     1.16  0.32628  0.14381  -0.08653
     2.32  0.40609  0.14392  -0.08720
     3.49  0.48616  0.14413  -0.08766
     4.65  0.56371  0.14430  -0.08754
     5.81  0.63879  0.14452  -0.08700
     6.97  0.70997  0.14491  -0.08570
     8.13  0.76842  0.14532  -0.08211
    10.75  0.79498  0.15302  -0.06382
    13.37  0.69580  0.20683  -0.05895
    15.98  0.67189  0.24014  -0.06412
    18.60  0.68722  0.27332  -0.07216
    21.22  0.68341  0.31496  -0.08525
    23.83  0.66300  0.34366  -0.10189
    26.45  0.64259  0.37237  -0.11852
    29.07  0.62218  0.40107  -0.13516
    31.68  0.60770  0.43386  -0.14740
    34.30  0.59627  0.46877  -0.15737
    36.92  0.58484  0.50367  -0.16734
    39.53  0.57341  0.53858  -0.17730
    42.15  0.55842  0.57512  -0.18585
    44.77  0.54271  0.61199  -0.19411
    47.38  0.52699  0.64887  -0.20236
    50.00  0.51128  0.68574  -0.21061
    60.00  0.41949  0.81656  -0.23876
    70.00  0.29669  0.92039  -0.26326
    80.00  0.15201  0.98379  -0.28338
    90.00  0.00004  0.99802  -0.29785
   100.00  -0.10634  0.98379  -0.30982
   110.00  -0.20786  0.92039  -0.31207
   120.00  -0.29357  0.81656  -0.30636
   130.00  -0.35801  0.68574  -0.29657
   140.00  -0.39996  0.54453  -0.28849
   150.00  -0.43096  0.41085  -0.29329
   160.00  -0.47959  0.30131  -0.34046
   170.00  -0.23947  0.22964  -0.30399
   180.00  0.00004  0.20465  -0.00004
EOT
