AeroDyn airfoil file.  Compatible with AeroDyn v13.0.
Interpolated thickness: 0.173

  1        Number of airfoil tables in this file
  9990     Reynolds number in millions.  For efficiency, make very large if only one table.
  0        Control setting
  13.3753  Stall angle (deg)
  -5.46837 Zero lift angle of attack (deg)
  6.10787  Cn slope for zero lift (dimensionless)
  2.00878  Cn at stall value for positive angle of attack
  -0.8     Cn at stall value for negative angle of attack
  -4.09    Angle of attack for minimum CD (deg)
  0.00677537 Minimum CD value
  -180.00  0.00000  0.18757  0.00000
  -170.00  0.40070  0.22742  0.40000
  -160.00  0.80240  0.34188  -0.13784
  -150.00  0.71091  0.51643  -0.06195
  -140.00  0.65991  0.72867  -0.00691
  -130.00  0.58996  0.95150  0.04633
  -120.00  0.48396  1.15579  0.09821
  -110.00  0.34200  1.31453  0.14476
  -100.00  0.17500  1.40590  0.18125
   -90.00  0.00000  1.41600  0.20279
   -80.00  -0.17500  1.40590  0.22383
   -70.00  -0.34200  1.31453  0.22887
   -60.00  -0.48396  1.15579  0.22071
   -50.00  -0.58996  0.95150  0.20509
   -40.00  -0.65991  0.72867  0.19131
   -30.00  -0.71091  0.51643  0.19663
   -20.00  -0.80136  0.34158  0.27037
   -10.00  -0.26649  0.10476  0.05493
    -6.04  -0.07639  0.01105  -0.14172
    -5.04  0.04413  0.00758  -0.15370
    -4.09  0.14758  0.00678  -0.15767
    -3.02  0.26287  0.00687  -0.15891
    -2.02  0.36915  0.00696  -0.15955
    -1.03  0.47450  0.00705  -0.16001
    -0.00  0.58270  0.00725  -0.16100
     0.70  0.65916  0.00745  -0.16056
     1.41  0.73403  0.00772  -0.16074
     2.11  0.80761  0.00806  -0.16152
     2.81  0.88074  0.00838  -0.16092
     3.52  0.95306  0.00870  -0.16033
     4.22  1.02376  0.00899  -0.15960
     6.51  1.19980  0.01290  -0.14947
     8.80  1.34554  0.01955  -0.13743
    11.09  1.47933  0.02855  -0.12675
    13.38  1.52367  0.05920  -0.11684
    15.66  1.33391  0.19881  -0.13099
    17.95  1.24369  0.27397  -0.13942
    20.24  1.14490  0.34604  -0.17233
    22.53  1.11463  0.38602  -0.19467
    24.82  1.08435  0.42601  -0.21701
    27.11  1.05408  0.46599  -0.23934
    29.40  1.02410  0.50617  -0.26146
    31.69  1.00352  0.55230  -0.27767
    33.98  0.98682  0.60088  -0.29146
    36.27  0.97012  0.64946  -0.30524
    38.55  0.95342  0.69803  -0.31902
    40.84  0.93436  0.74751  -0.33194
    43.13  0.91126  0.79851  -0.34340
    45.42  0.88816  0.84950  -0.35487
    47.71  0.86506  0.90050  -0.36633
    50.00  0.84196  0.95150  -0.37779
    60.00  0.69096  1.15579  -0.42141
    70.00  0.48896  1.31453  -0.45817
    80.00  0.25000  1.40590  -0.48668
    90.00  0.00000  1.41600  -0.50521
   100.00  -0.17500  1.40590  -0.52625
   110.00  -0.34200  1.31453  -0.53129
   120.00  -0.48396  1.15579  -0.52314
   130.00  -0.58996  0.95150  -0.50752
   140.00  -0.65991  0.72867  -0.49374
   150.00  -0.71091  0.51643  -0.49905
   160.00  -0.80240  0.34188  -0.57311
   170.00  -0.40070  0.22742  -0.50000
   180.00  0.00000  0.18757  0.00000
EOT
