AeroDyn airfoil file.  Compatible with AeroDyn v13.0.
Interpolated thickness: 0.863

  1        Number of airfoil tables in this file
  9990     Reynolds number in millions.  For efficiency, make very large if only one table.
  0        Control setting
  10.6622  Stall angle (deg)
  -2.86317 Zero lift angle of attack (deg)
  1.4653   Cn slope for zero lift (dimensionless)
  0.345902 Cn at stall value for positive angle of attack
  -0.8     Cn at stall value for negative angle of attack
  -2.12    Angle of attack for minimum CD (deg)
  0.288801 Minimum CD value
  -180.00  0.00008  0.30690  -0.00008
  -170.00  0.07111  0.31431  0.07202
  -160.00  0.14231  0.33556  -0.02590
  -150.00  0.12789  0.36804  -0.01144
  -140.00  0.11870  0.40768  -0.00136
  -130.00  0.10626  0.44956  0.00839
  -120.00  0.08715  0.48835  0.01807
  -110.00  0.06173  0.51914  0.02705
  -100.00  0.03163  0.53794  0.03440
   -90.00  0.00008  0.54216  0.03923
   -80.00  -0.03146  0.53794  0.04280
   -70.00  -0.06157  0.51914  0.04345
   -60.00  -0.08699  0.48835  0.04178
   -50.00  -0.10609  0.44956  0.03885
   -40.00  -0.11853  0.40768  0.03648
   -30.00  -0.12772  0.36804  0.03790
   -20.00  -0.14179  0.33552  0.05174
   -10.00  -0.05796  0.30602  0.02283
    -4.17  -0.01290  0.28884  -0.02435
    -3.17  0.00765  0.28882  -0.02471
    -2.12  0.02892  0.28880  -0.02499
    -1.08  0.05038  0.28880  -0.02532
    -0.05  0.07165  0.28882  -0.02550
    -0.01  0.07170  0.28882  -0.02550
     1.15  0.09682  0.28886  -0.02573
     2.30  0.12049  0.28889  -0.02593
     3.45  0.14423  0.28895  -0.02606
     4.59  0.16723  0.28900  -0.02603
     5.74  0.18949  0.28907  -0.02587
     6.89  0.21060  0.28918  -0.02548
     8.04  0.22793  0.28931  -0.02442
    10.66  0.23581  0.29159  -0.01899
    13.28  0.20640  0.30754  -0.01755
    15.91  0.19931  0.31742  -0.01908
    18.53  0.20386  0.32726  -0.02147
    21.15  0.20273  0.33961  -0.02535
    23.77  0.19668  0.34812  -0.03028
    26.40  0.19062  0.35663  -0.03522
    29.02  0.18457  0.36514  -0.04015
    31.64  0.18027  0.37487  -0.04378
    34.26  0.17689  0.38522  -0.04674
    36.89  0.17350  0.39557  -0.04969
    39.51  0.17011  0.40592  -0.05265
    42.13  0.16566  0.41676  -0.05518
    44.75  0.16100  0.42769  -0.05763
    47.38  0.15634  0.43862  -0.06008
    50.00  0.15168  0.44956  -0.06253
    60.00  0.12446  0.48835  -0.07087
    70.00  0.08805  0.51914  -0.07814
    80.00  0.04515  0.53794  -0.08410
    90.00  0.00008  0.54216  -0.08839
   100.00  -0.03146  0.53794  -0.09194
   110.00  -0.06157  0.51914  -0.09261
   120.00  -0.08699  0.48835  -0.09092
   130.00  -0.10609  0.44956  -0.08801
   140.00  -0.11853  0.40768  -0.08562
   150.00  -0.12772  0.36804  -0.08704
   160.00  -0.14215  0.33556  -0.10103
   170.00  -0.07094  0.31431  -0.09021
   180.00  0.00008  0.30690  -0.00008
EOT
