AeroDyn airfoil file.  Compatible with AeroDyn v13.0.
Interpolated thickness: 0.474

  1        Number of airfoil tables in this file
  9990     Reynolds number in millions.  For efficiency, make very large if only one table.
  0        Control setting
  10.7677  Stall angle (deg)
  -3.45561 Zero lift angle of attack (deg)
  4.61848  Cn slope for zero lift (dimensionless)
  1.14651  Cn at stall value for positive angle of attack
  -0.8     Cn at stall value for negative angle of attack
  -2.12    Angle of attack for minimum CD (deg)
  0.11503  Minimum CD value
  -180.00  0.00003  0.18452  -0.00003
  -170.00  0.27272  0.21296  0.27681
  -160.00  0.54610  0.29456  -0.09914
  -150.00  0.49073  0.41928  -0.04363
  -140.00  0.45544  0.57147  -0.00494
  -130.00  0.40768  0.73225  0.03250
  -120.00  0.33432  0.88119  0.06966
  -110.00  0.23673  0.99940  0.10413
  -100.00  0.12115  1.07159  0.13237
   -90.00  0.00003  1.08778  0.15092
   -80.00  -0.12109  1.07159  0.16462
   -70.00  -0.23667  0.99940  0.16711
   -60.00  -0.33426  0.88119  0.16068
   -50.00  -0.40762  0.73225  0.14946
   -40.00  -0.45537  0.57147  0.14033
   -30.00  -0.49067  0.41928  0.14580
   -20.00  -0.54466  0.29442  0.19895
   -10.00  -0.22283  0.18113  0.08794
    -4.17  -0.04980  0.11517  -0.09319
    -3.17  0.02910  0.11510  -0.09457
    -2.12  0.11077  0.11503  -0.09568
    -1.08  0.19313  0.11503  -0.09693
    -0.05  0.27480  0.11510  -0.09762
    -0.03  0.27499  0.11510  -0.09762
     1.16  0.37146  0.11525  -0.09851
     2.33  0.46233  0.11537  -0.09927
     3.49  0.55349  0.11561  -0.09979
     4.66  0.64179  0.11580  -0.09966
     5.82  0.72726  0.11606  -0.09904
     6.99  0.80831  0.11649  -0.09755
     8.15  0.87485  0.11697  -0.09347
    10.77  0.90509  0.12574  -0.07264
    13.38  0.79217  0.18699  -0.06710
    16.00  0.76495  0.22492  -0.07299
    18.61  0.78241  0.26269  -0.08214
    21.23  0.77807  0.31011  -0.09705
    23.85  0.75483  0.34279  -0.11599
    26.46  0.73160  0.37546  -0.13493
    29.08  0.70836  0.40814  -0.15387
    31.69  0.69186  0.44548  -0.16780
    34.31  0.67885  0.48522  -0.17915
    36.92  0.66584  0.52496  -0.19050
    39.54  0.65283  0.56470  -0.20185
    42.15  0.63577  0.60630  -0.21158
    44.77  0.61788  0.64828  -0.22098
    47.38  0.59998  0.69027  -0.23038
    50.00  0.58209  0.73225  -0.23978
    60.00  0.47758  0.88119  -0.27182
    70.00  0.33778  0.99940  -0.29971
    80.00  0.17306  1.07159  -0.32262
    90.00  0.00003  1.08778  -0.33909
   100.00  -0.12109  1.07159  -0.35273
   110.00  -0.23667  0.99940  -0.35529
   120.00  -0.33426  0.88119  -0.34878
   130.00  -0.40762  0.73225  -0.33764
   140.00  -0.45537  0.57147  -0.32843
   150.00  -0.49067  0.41928  -0.33390
   160.00  -0.54604  0.29456  -0.38761
   170.00  -0.27266  0.21296  -0.34608
   180.00  0.00003  0.18452  -0.00003
EOT
