AeroDyn airfoil file.  Compatible with AeroDyn v13.0.
Interpolated thickness: 0.371

  1        Number of airfoil tables in this file
  9990     Reynolds number in millions.  For efficiency, make very large if only one table.
  0        Control setting
  10.7957  Stall angle (deg)
  -3.52146 Zero lift angle of attack (deg)
  5.42597  Cn slope for zero lift (dimensionless)
  1.35585  Cn at stall value for positive angle of attack
  -0.8     Cn at stall value for negative angle of attack
  -2.12    Angle of attack for minimum CD (deg)
  0.0690191 Minimum CD value
  -180.00  0.00002  0.15211  -0.00002
  -170.00  0.32610  0.18613  0.33104
  -160.00  0.65302  0.28371  -0.11853
  -150.00  0.58681  0.43285  -0.05216
  -140.00  0.54460  0.61484  -0.00589
  -130.00  0.48749  0.80710  0.03888
  -120.00  0.39976  0.98521  0.08333
  -110.00  0.28307  1.12657  0.12454
  -100.00  0.14485  1.21289  0.15831
   -90.00  0.00002  1.23226  0.18049
   -80.00  -0.14482  1.21289  0.19688
   -70.00  -0.28303  1.12657  0.19986
   -60.00  -0.39973  0.98521  0.19216
   -50.00  -0.48746  0.80710  0.17875
   -40.00  -0.54456  0.61484  0.16783
   -30.00  -0.58677  0.43285  0.17436
   -20.00  -0.65133  0.28354  0.23793
   -10.00  -0.26648  0.14806  0.10517
    -4.17  -0.05957  0.06918  -0.11142
    -3.17  0.03478  0.06910  -0.11307
    -2.12  0.13244  0.06902  -0.11440
    -1.08  0.23093  0.06902  -0.11589
    -0.05  0.32859  0.06910  -0.11671
    -0.04  0.32881  0.06910  -0.11672
     1.17  0.44418  0.06928  -0.11778
     2.34  0.55285  0.06943  -0.11869
     3.51  0.66186  0.06971  -0.11931
     4.68  0.76744  0.06994  -0.11915
     5.84  0.86966  0.07025  -0.11841
     7.01  0.96657  0.07077  -0.11664
     8.18  1.04614  0.07134  -0.11175
    10.80  1.08231  0.08182  -0.08685
    13.41  0.94727  0.15508  -0.08022
    16.02  0.91472  0.20043  -0.08726
    18.64  0.93560  0.24560  -0.09820
    21.25  0.93041  0.30230  -0.11603
    23.86  0.90262  0.34137  -0.13868
    26.48  0.87484  0.38045  -0.16133
    29.09  0.84705  0.41953  -0.18398
    31.70  0.82732  0.46417  -0.20064
    34.32  0.81176  0.51170  -0.21421
    36.93  0.79620  0.55922  -0.22779
    39.55  0.78064  0.60674  -0.24136
    42.16  0.76024  0.65649  -0.25299
    44.77  0.73885  0.70669  -0.26423
    47.39  0.71745  0.75690  -0.27547
    50.00  0.69606  0.80710  -0.28671
    60.00  0.57108  0.98521  -0.32503
    70.00  0.40390  1.12657  -0.35838
    80.00  0.20693  1.21289  -0.38578
    90.00  0.00002  1.23226  -0.40547
   100.00  -0.14482  1.21289  -0.42178
   110.00  -0.28303  1.12657  -0.42484
   120.00  -0.39973  0.98521  -0.41706
   130.00  -0.48746  0.80710  -0.40374
   140.00  -0.54456  0.61484  -0.39273
   150.00  -0.58677  0.43285  -0.39927
   160.00  -0.65298  0.28371  -0.46349
   170.00  -0.32607  0.18613  -0.41383
   180.00  0.00002  0.15211  -0.00002
EOT
