AeroDyn airfoil file.  Compatible with AeroDyn v13.0.
Interpolated thickness: 0.18

  1        Number of airfoil tables in this file
  9990     Reynolds number in millions.  For efficiency, make very large if only one table.
  0        Control setting
  13.7097  Stall angle (deg)
  -5.26584 Zero lift angle of attack (deg)
  6.14204  Cn slope for zero lift (dimensionless)
  2.03416  Cn at stall value for positive angle of attack
  -0.8     Cn at stall value for negative angle of attack
  -4.09    Angle of attack for minimum CD (deg)
  0.00718457 Minimum CD value
  -180.00  0.00000  0.17956  0.00000
  -170.00  0.40000  0.21954  0.40000
  -160.00  0.80100  0.33436  -0.13840
  -150.00  0.71071  0.50950  -0.06206
  -140.00  0.65971  0.72254  -0.00693
  -130.00  0.58986  0.94636  0.04640
  -120.00  0.48386  1.15179  0.09847
  -110.00  0.34200  1.31179  0.14536
  -100.00  0.17500  1.40451  0.18230
   -90.00  0.00000  1.41600  0.20439
   -80.00  -0.17500  1.40451  0.22530
   -70.00  -0.34200  1.31179  0.23019
   -60.00  -0.48386  1.15179  0.22191
   -50.00  -0.58986  0.94636  0.20623
   -40.00  -0.65971  0.72254  0.19251
   -30.00  -0.71071  0.50950  0.19810
   -20.00  -0.79986  0.33407  0.27216
   -10.00  -0.27229  0.10489  0.06247
    -6.04  -0.08431  0.01421  -0.13221
    -5.04  0.02810  0.00939  -0.14762
    -4.09  0.12559  0.00718  -0.15528
    -3.02  0.24155  0.00726  -0.15660
    -2.02  0.34849  0.00733  -0.15734
    -1.03  0.45468  0.00741  -0.15792
    -0.01  0.56332  0.00760  -0.15891
     0.77  0.64864  0.00781  -0.15867
     1.55  0.73173  0.00807  -0.15896
     2.32  0.81362  0.00842  -0.15972
     3.09  0.89421  0.00874  -0.15909
     3.86  0.97350  0.00910  -0.15834
     4.64  1.04886  0.00944  -0.15703
     6.91  1.21091  0.01384  -0.14538
     9.17  1.32737  0.02541  -0.13295
    11.44  1.44232  0.03983  -0.12391
    13.71  1.47933  0.07256  -0.11580
    15.98  1.31265  0.20143  -0.12970
    18.25  1.23191  0.27490  -0.13893
    20.51  1.14063  0.34339  -0.17069
    22.78  1.11071  0.38314  -0.19298
    25.05  1.08080  0.42290  -0.21527
    27.32  1.05088  0.46265  -0.23756
    29.59  1.02193  0.50307  -0.25913
    31.85  1.00194  0.54918  -0.27502
    34.12  0.98541  0.59748  -0.28873
    36.39  0.96888  0.64578  -0.30244
    38.66  0.95235  0.69408  -0.31615
    40.93  0.93325  0.74340  -0.32891
    43.20  0.91040  0.79414  -0.34031
    45.46  0.88755  0.84488  -0.35171
    47.73  0.86471  0.89562  -0.36311
    50.00  0.84186  0.94636  -0.37451
    60.00  0.69086  1.15179  -0.41841
    70.00  0.48886  1.31179  -0.45554
    80.00  0.25000  1.40451  -0.48453
    90.00  0.00000  1.41600  -0.50361
   100.00  -0.17500  1.40451  -0.52451
   110.00  -0.34200  1.31179  -0.52941
   120.00  -0.48386  1.15179  -0.52113
   130.00  -0.58986  0.94636  -0.50546
   140.00  -0.65971  0.72254  -0.49173
   150.00  -0.71071  0.50950  -0.49731
   160.00  -0.80100  0.33436  -0.57174
   170.00  -0.40000  0.21954  -0.50000
   180.00  0.00000  0.17956  0.00000
EOT
