AeroDyn airfoil file.  Compatible with AeroDyn v13.0.
Interpolated thickness: 0.688

  1        Number of airfoil tables in this file
  9990     Reynolds number in millions.  For efficiency, make very large if only one table.
  0        Control setting
  10.7097  Stall angle (deg)
  -3.24379 Zero lift angle of attack (deg)
  2.9115   Cn slope for zero lift (dimensionless)
  0.709048 Cn at stall value for positive angle of attack
  -0.8     Cn at stall value for negative angle of attack
  -2.12    Angle of attack for minimum CD (deg)
  0.210626 Minimum CD value
  -180.00  0.00006  0.25184  -0.00006
  -170.00  0.16181  0.26872  0.16415
  -160.00  0.32396  0.31712  -0.05885
  -150.00  0.29112  0.39109  -0.02592
  -140.00  0.27019  0.48137  -0.00297
  -130.00  0.24186  0.57673  0.01924
  -120.00  0.19834  0.66508  0.04128
  -110.00  0.14046  0.73520  0.06173
  -100.00  0.07190  0.77801  0.07847
   -90.00  0.00006  0.78762  0.08948
   -80.00  -0.07178  0.77801  0.09761
   -70.00  -0.14034  0.73520  0.09908
   -60.00  -0.19823  0.66508  0.09527
   -50.00  -0.24174  0.57673  0.08861
   -40.00  -0.27007  0.48137  0.08320
   -30.00  -0.29100  0.39109  0.08644
   -20.00  -0.32303  0.31703  0.11797
   -10.00  -0.13213  0.24983  0.05212
    -4.17  -0.02950  0.21071  -0.05532
    -3.17  0.01730  0.21067  -0.05614
    -2.12  0.06574  0.21063  -0.05679
    -1.08  0.11460  0.21063  -0.05753
    -0.05  0.16304  0.21067  -0.05794
    -0.02  0.16315  0.21067  -0.05794
     1.16  0.22038  0.21076  -0.05847
     2.31  0.27428  0.21083  -0.05892
     3.47  0.32835  0.21097  -0.05923
     4.62  0.38072  0.21109  -0.05915
     5.78  0.43142  0.21124  -0.05878
     6.93  0.47949  0.21149  -0.05791
     8.09  0.51896  0.21178  -0.05548
    10.71  0.53690  0.21698  -0.04313
    13.33  0.46992  0.25331  -0.03984
    15.95  0.45378  0.27581  -0.04333
    18.57  0.46413  0.29821  -0.04876
    21.19  0.46156  0.32634  -0.05761
    23.81  0.44777  0.34572  -0.06884
    26.43  0.43399  0.36510  -0.08007
    29.05  0.42021  0.38449  -0.09131
    31.66  0.41042  0.40663  -0.09957
    34.28  0.40271  0.43021  -0.10631
    36.90  0.39499  0.45378  -0.11304
    39.52  0.38727  0.47735  -0.11977
    42.14  0.37715  0.50203  -0.12554
    44.76  0.36654  0.52693  -0.13112
    47.38  0.35592  0.55183  -0.13669
    50.00  0.34531  0.57673  -0.14227
    60.00  0.28332  0.66508  -0.16127
    70.00  0.20040  0.73520  -0.17782
    80.00  0.10269  0.77801  -0.19141
    90.00  0.00006  0.78762  -0.20118
   100.00  -0.07178  0.77801  -0.20926
   110.00  -0.14034  0.73520  -0.21078
   120.00  -0.19823  0.66508  -0.20692
   130.00  -0.24174  0.57673  -0.20031
   140.00  -0.27007  0.48137  -0.19485
   150.00  -0.29100  0.39109  -0.19810
   160.00  -0.32385  0.31712  -0.22995
   170.00  -0.16169  0.26872  -0.20532
   180.00  0.00006  0.25184  -0.00006
EOT
