AeroDyn airfoil file.  Compatible with AeroDyn v13.0.
Interpolated thickness: 0.622

  1        Number of airfoil tables in this file
  9990     Reynolds number in millions.  For efficiency, make very large if only one table.
  0        Control setting
  10.7276  Stall angle (deg)
  -3.32639 Zero lift angle of attack (deg)
  3.44222  Cn slope for zero lift (dimensionless)
  0.844335 Cn at stall value for positive angle of attack
  -0.8     Cn at stall value for negative angle of attack
  -2.12    Angle of attack for minimum CD (deg)
  0.181143 Minimum CD value
  -180.00  0.00005  0.23108  -0.00005
  -170.00  0.19601  0.25152  0.19890
  -160.00  0.39247  0.31016  -0.07127
  -150.00  0.35268  0.39979  -0.03138
  -140.00  0.32732  0.50916  -0.00358
  -130.00  0.29300  0.62470  0.02333
  -120.00  0.24028  0.73173  0.05003
  -110.00  0.17015  0.81668  0.07480
  -100.00  0.08709  0.86856  0.09510
   -90.00  0.00005  0.88019  0.10843
   -80.00  -0.08699  0.86856  0.11827
   -70.00  -0.17005  0.81668  0.12006
   -60.00  -0.24018  0.73173  0.11544
   -50.00  -0.29290  0.62470  0.10738
   -40.00  -0.32722  0.50916  0.10082
   -30.00  -0.35258  0.39979  0.10475
   -20.00  -0.39138  0.31006  0.14294
   -10.00  -0.16010  0.22864  0.06317
    -4.17  -0.03576  0.18124  -0.06700
    -3.17  0.02094  0.18119  -0.06799
    -2.12  0.07963  0.18114  -0.06879
    -1.08  0.13882  0.18114  -0.06968
    -0.05  0.19751  0.18119  -0.07018
    -0.02  0.19764  0.18119  -0.07018
     1.16  0.26697  0.18130  -0.07082
     2.32  0.33227  0.18139  -0.07137
     3.48  0.39778  0.18156  -0.07174
     4.63  0.46124  0.18170  -0.07164
     5.79  0.52266  0.18188  -0.07120
     6.95  0.58090  0.18220  -0.07013
     8.11  0.62872  0.18254  -0.06720
    10.73  0.65046  0.18884  -0.05223
    13.35  0.56931  0.23286  -0.04825
    15.96  0.54975  0.26011  -0.05248
    18.58  0.56229  0.28726  -0.05906
    21.20  0.55917  0.32133  -0.06977
    23.82  0.54247  0.34482  -0.08338
    26.44  0.52578  0.36830  -0.09699
    29.05  0.50908  0.39178  -0.11060
    31.67  0.49722  0.41861  -0.12062
    34.29  0.48787  0.44717  -0.12877
    36.91  0.47852  0.47573  -0.13693
    39.53  0.46917  0.50429  -0.14509
    42.15  0.45691  0.53419  -0.15208
    44.76  0.44405  0.56436  -0.15883
    47.38  0.43119  0.59453  -0.16559
    50.00  0.41834  0.62470  -0.17234
    60.00  0.34323  0.73173  -0.19537
    70.00  0.24277  0.81668  -0.21541
    80.00  0.12439  0.86856  -0.23187
    90.00  0.00005  0.88019  -0.24371
   100.00  -0.08699  0.86856  -0.25351
   110.00  -0.17005  0.81668  -0.25535
   120.00  -0.24018  0.73173  -0.25067
   130.00  -0.29290  0.62470  -0.24267
   140.00  -0.32722  0.50916  -0.23605
   150.00  -0.35258  0.39979  -0.23998
   160.00  -0.39237  0.31016  -0.27858
   170.00  -0.19591  0.25152  -0.24873
   180.00  0.00005  0.23108  -0.00005
EOT
