AeroDyn airfoil file.  Compatible with AeroDyn v13.0.
Interpolated thickness: 0.403

  1        Number of airfoil tables in this file
  9990     Reynolds number in millions.  For efficiency, make very large if only one table.
  0        Control setting
  10.787   Stall angle (deg)
  -3.50239 Zero lift angle of attack (deg)
  5.17606  Cn slope for zero lift (dimensionless)
  1.2909   Cn at stall value for positive angle of attack
  -0.8     Cn at stall value for negative angle of attack
  -2.12    Angle of attack for minimum CD (deg)
  0.0833138 Minimum CD value
  -180.00  0.00002  0.16218  -0.00002
  -170.00  0.30952  0.19447  0.31419
  -160.00  0.61980  0.28708  -0.11251
  -150.00  0.55696  0.42863  -0.04951
  -140.00  0.51690  0.60137  -0.00560
  -130.00  0.46270  0.78385  0.03690
  -120.00  0.37943  0.95289  0.07908
  -110.00  0.26867  1.08706  0.11820
  -100.00  0.13749  1.16899  0.15025
   -90.00  0.00002  1.18737  0.17130
   -80.00  -0.13745  1.16899  0.18686
   -70.00  -0.26863  1.08706  0.18968
   -60.00  -0.37939  0.95289  0.18238
   -50.00  -0.46265  0.78385  0.16965
   -40.00  -0.51685  0.60137  0.15928
   -30.00  -0.55692  0.42863  0.16549
   -20.00  -0.61819  0.28692  0.22582
   -10.00  -0.25292  0.15833  0.09982
    -4.17  -0.05654  0.08347  -0.10575
    -3.17  0.03301  0.08339  -0.10732
    -2.12  0.12571  0.08331  -0.10858
    -1.08  0.21918  0.08331  -0.11000
    -0.05  0.31188  0.08339  -0.11078
    -0.04  0.31209  0.08339  -0.11078
     1.17  0.42159  0.08356  -0.11179
     2.34  0.52472  0.08370  -0.11265
     3.50  0.62819  0.08397  -0.11324
     4.67  0.72840  0.08419  -0.11310
     5.84  0.82542  0.08448  -0.11239
     7.01  0.91740  0.08498  -0.11071
     8.17  0.99293  0.08551  -0.10607
    10.79  1.02725  0.09546  -0.08244
    13.40  0.89909  0.16499  -0.07614
    16.02  0.86819  0.20804  -0.08282
    18.63  0.88801  0.25091  -0.09321
    21.24  0.88308  0.30472  -0.11014
    23.86  0.85671  0.34181  -0.13163
    26.47  0.83034  0.37890  -0.15313
    29.09  0.80396  0.41599  -0.17462
    31.70  0.78524  0.45836  -0.19044
    34.31  0.77047  0.50347  -0.20332
    36.93  0.75570  0.54858  -0.21620
    39.54  0.74093  0.59368  -0.22909
    42.16  0.72157  0.64090  -0.24013
    44.77  0.70126  0.68855  -0.25080
    47.39  0.68096  0.73620  -0.26146
    50.00  0.66065  0.78385  -0.27213
    60.00  0.54203  0.95289  -0.30850
    70.00  0.38336  1.08706  -0.34015
    80.00  0.19640  1.16899  -0.36616
    90.00  0.00002  1.18737  -0.38485
   100.00  -0.13745  1.16899  -0.40033
   110.00  -0.26863  1.08706  -0.40323
   120.00  -0.37939  0.95289  -0.39585
   130.00  -0.46265  0.78385  -0.38320
   140.00  -0.51685  0.60137  -0.37275
   150.00  -0.55692  0.42863  -0.37896
   160.00  -0.61976  0.28708  -0.43992
   170.00  -0.30948  0.19447  -0.39278
   180.00  0.00002  0.16218  -0.00002
EOT
