AeroDyn airfoil file.  Compatible with AeroDyn v13.0.
Interpolated thickness: 0.743

  1        Number of airfoil tables in this file
  9990     Reynolds number in millions.  For efficiency, make very large if only one table.
  0        Control setting
  10.6947  Stall angle (deg)
  -3.15258 Zero lift angle of attack (deg)
  2.46629  Cn slope for zero lift (dimensionless)
  0.596056 Cn at stall value for positive angle of attack
  -0.8     Cn at stall value for negative angle of attack
  -2.12    Angle of attack for minimum CD (deg)
  0.235195 Minimum CD value
  -180.00  0.00007  0.26915  -0.00007
  -170.00  0.13330  0.28304  0.13520
  -160.00  0.26687  0.32291  -0.04849
  -150.00  0.23982  0.38385  -0.02137
  -140.00  0.22257  0.45821  -0.00247
  -130.00  0.19924  0.53676  0.01583
  -120.00  0.16340  0.60954  0.03399
  -110.00  0.11572  0.66729  0.05083
  -100.00  0.05924  0.70256  0.06462
   -90.00  0.00007  0.71048  0.07369
   -80.00  -0.05911  0.70256  0.08038
   -70.00  -0.11558  0.66729  0.08160
   -60.00  -0.16326  0.60954  0.07845
   -50.00  -0.19911  0.53676  0.07298
   -40.00  -0.22244  0.45821  0.06851
   -30.00  -0.23969  0.38385  0.07118
   -20.00  -0.26606  0.32285  0.09715
   -10.00  -0.10882  0.26749  0.04291
    -4.17  -0.02428  0.23526  -0.04558
    -3.17  0.01427  0.23523  -0.04626
    -2.12  0.05417  0.23520  -0.04680
    -1.08  0.09441  0.23520  -0.04741
    -0.05  0.13431  0.23523  -0.04775
    -0.02  0.13441  0.23523  -0.04775
     1.15  0.18155  0.23530  -0.04818
     2.31  0.22594  0.23536  -0.04855
     3.46  0.27048  0.23548  -0.04881
     4.61  0.31362  0.23557  -0.04874
     5.77  0.35539  0.23570  -0.04844
     6.92  0.39498  0.23591  -0.04772
     8.07  0.42750  0.23614  -0.04572
    10.69  0.44227  0.24043  -0.03554
    13.32  0.38710  0.27036  -0.03283
    15.94  0.37380  0.28889  -0.03571
    18.56  0.38233  0.30734  -0.04018
    21.18  0.38021  0.33051  -0.04747
    23.80  0.36886  0.34648  -0.05672
    26.42  0.35750  0.36244  -0.06598
    29.04  0.34615  0.37841  -0.07523
    31.66  0.33809  0.39665  -0.08204
    34.28  0.33173  0.41607  -0.08758
    36.90  0.32538  0.43548  -0.09313
    39.52  0.31902  0.45490  -0.09867
    42.14  0.31068  0.47523  -0.10343
    44.76  0.30194  0.49574  -0.10802
    47.38  0.29320  0.51625  -0.11261
    50.00  0.28446  0.53676  -0.11720
    60.00  0.23340  0.60954  -0.13286
    70.00  0.16509  0.66729  -0.14649
    80.00  0.08461  0.70256  -0.15768
    90.00  0.00007  0.71048  -0.16573
   100.00  -0.05911  0.70256  -0.17239
   110.00  -0.11558  0.66729  -0.17364
   120.00  -0.16326  0.60954  -0.17046
   130.00  -0.19911  0.53676  -0.16502
   140.00  -0.22244  0.45821  -0.16052
   150.00  -0.23969  0.38385  -0.16319
   160.00  -0.26674  0.32291  -0.18943
   170.00  -0.13317  0.28304  -0.16915
   180.00  0.00007  0.26915  -0.00007
EOT
