AeroDyn airfoil file.  Compatible with AeroDyn v13.0.
Interpolated thickness: 0.809

  1        Number of airfoil tables in this file
  9990     Reynolds number in millions.  For efficiency, make very large if only one table.
  0        Control setting
  10.6768  Stall angle (deg)
  -3.07427 Zero lift angle of attack (deg)
  1.90182  Cn slope for zero lift (dimensionless)
  0.45644  Cn at stall value for positive angle of attack
  -0.8     Cn at stall value for negative angle of attack
  -2.12    Angle of attack for minimum CD (deg)
  0.264678 Minimum CD value
  -180.00  0.00007  0.28991  -0.00007
  -170.00  0.09909  0.30024  0.10045
  -160.00  0.19836  0.32987  -0.03606
  -150.00  0.17826  0.37516  -0.01591
  -140.00  0.16544  0.43042  -0.00186
  -130.00  0.14810  0.48880  0.01174
  -120.00  0.12146  0.54288  0.02523
  -110.00  0.08602  0.58581  0.03775
  -100.00  0.04406  0.61202  0.04800
   -90.00  0.00007  0.61790  0.05474
   -80.00  -0.04391  0.61202  0.05971
   -70.00  -0.08588  0.58581  0.06062
   -60.00  -0.12131  0.54288  0.05828
   -50.00  -0.14795  0.48880  0.05421
   -40.00  -0.16529  0.43042  0.05089
   -30.00  -0.17811  0.37516  0.05288
   -20.00  -0.19771  0.32982  0.07218
   -10.00  -0.08085  0.28868  0.03187
    -4.17  -0.01802  0.26473  -0.03390
    -3.17  0.01063  0.26470  -0.03440
    -2.12  0.04029  0.26468  -0.03481
    -1.08  0.07019  0.26468  -0.03526
    -0.05  0.09985  0.26470  -0.03551
    -0.01  0.09992  0.26470  -0.03551
     1.15  0.13495  0.26476  -0.03583
     2.30  0.16794  0.26480  -0.03611
     3.45  0.20105  0.26489  -0.03630
     4.60  0.23311  0.26496  -0.03625
     5.75  0.26415  0.26505  -0.03603
     6.90  0.29357  0.26521  -0.03549
     8.06  0.31774  0.26538  -0.03400
    10.68  0.32872  0.26857  -0.02644
    13.30  0.28772  0.29081  -0.02443
    15.92  0.27783  0.30458  -0.02657
    18.54  0.28417  0.31830  -0.02989
    21.16  0.28259  0.33551  -0.03530
    23.78  0.27416  0.34738  -0.04218
    26.41  0.26572  0.35925  -0.04906
    29.03  0.25728  0.37111  -0.05594
    31.65  0.25129  0.38467  -0.06100
    34.27  0.24657  0.39910  -0.06512
    36.89  0.24184  0.41353  -0.06924
    39.51  0.23712  0.42796  -0.07336
    42.14  0.23092  0.44307  -0.07689
    44.76  0.22443  0.45831  -0.08031
    47.38  0.21793  0.47356  -0.08372
    50.00  0.21143  0.48880  -0.08713
    60.00  0.17348  0.54288  -0.09877
    70.00  0.12272  0.58581  -0.10889
    80.00  0.06290  0.61202  -0.11721
    90.00  0.00007  0.61790  -0.12319
   100.00  -0.04391  0.61202  -0.12815
   110.00  -0.08588  0.58581  -0.12908
   120.00  -0.12131  0.54288  -0.12671
   130.00  -0.14795  0.48880  -0.12267
   140.00  -0.16529  0.43042  -0.11932
   150.00  -0.17811  0.37516  -0.12131
   160.00  -0.19821  0.32987  -0.14081
   170.00  -0.09894  0.30024  -0.12573
   180.00  0.00007  0.28991  -0.00007
EOT
