AeroDyn airfoil file.  Compatible with AeroDyn v13.0.
Interpolated thickness: 0.247

  1        Number of airfoil tables in this file
  9990     Reynolds number in millions.  For efficiency, make very large if only one table.
  0        Control setting
  10.8294  Stall angle (deg)
  -3.58689 Zero lift angle of attack (deg)
  6.3862   Cn slope for zero lift (dimensionless)
  1.60684  Cn at stall value for positive angle of attack
  -0.8     Cn at stall value for negative angle of attack
  -2.12    Angle of attack for minimum CD (deg)
  0.013627 Minimum CD value
  -180.00  0.00000  0.11310  -0.00000
  -170.00  0.39037  0.15382  0.39631
  -160.00  0.78173  0.27064  -0.14188
  -150.00  0.70247  0.44918  -0.06242
  -140.00  0.65194  0.66705  -0.00704
  -130.00  0.58358  0.89721  0.04657
  -120.00  0.47855  1.11043  0.09977
  -110.00  0.33885  1.27966  0.14911
  -100.00  0.17339  1.38300  0.18954
   -90.00  0.00000  1.40618  0.21609
   -80.00  -0.17339  1.38300  0.23571
   -70.00  -0.33885  1.27966  0.23927
   -60.00  -0.47855  1.11043  0.23006
   -50.00  -0.58357  0.89721  0.21401
   -40.00  -0.65194  0.66705  0.20093
   -30.00  -0.70247  0.44918  0.20876
   -20.00  -0.77975  0.27044  0.28485
   -10.00  -0.31903  0.10825  0.12593
    -4.17  -0.07134  0.01383  -0.13336
    -3.17  0.04161  0.01373  -0.13534
    -2.12  0.15853  0.01363  -0.13693
    -1.08  0.27643  0.01363  -0.13871
    -0.05  0.39334  0.01373  -0.13970
    -0.05  0.39362  0.01373  -0.13970
     1.17  0.53173  0.01394  -0.14098
     2.35  0.66181  0.01412  -0.14206
     3.52  0.79231  0.01445  -0.14281
     4.70  0.91871  0.01473  -0.14262
     5.87  1.04108  0.01510  -0.14173
     7.04  1.15710  0.01572  -0.13961
     8.22  1.25236  0.01640  -0.13376
    10.83  1.29565  0.02895  -0.10395
    13.44  1.13400  0.11665  -0.09601
    16.05  1.09503  0.17094  -0.10444
    18.66  1.12002  0.22501  -0.11754
    21.27  1.11381  0.29289  -0.13889
    23.89  1.08055  0.33967  -0.16600
    26.50  1.04728  0.38645  -0.19311
    29.11  1.01402  0.43323  -0.22023
    31.72  0.99040  0.48668  -0.24018
    34.33  0.97177  0.54357  -0.25643
    36.94  0.95315  0.60046  -0.27267
    39.55  0.93452  0.65736  -0.28892
    42.17  0.91009  0.71691  -0.30285
    44.78  0.88448  0.77701  -0.31630
    47.39  0.85887  0.83711  -0.32976
    50.00  0.83325  0.89721  -0.34321
    60.00  0.68365  1.11043  -0.38908
    70.00  0.48351  1.27966  -0.42901
    80.00  0.24770  1.38300  -0.46181
    90.00  0.00000  1.40618  -0.48539
   100.00  -0.17339  1.38300  -0.50491
   110.00  -0.33885  1.27966  -0.50857
   120.00  -0.47855  1.11043  -0.49926
   130.00  -0.58357  0.89721  -0.48331
   140.00  -0.65194  0.66705  -0.47013
   150.00  -0.70247  0.44918  -0.47796
   160.00  -0.78173  0.27064  -0.55484
   170.00  -0.39037  0.15382  -0.49540
   180.00  0.00000  0.11310  -0.00000
EOT
